LTspice 24.0.12 for Windows
Circuit: * C:\Users\tomto\Documents\skola\Skola\NAO\cv2\1_WPZ.asc
Start Time: Wed Mar 12 19:56:49 2025
solver = Normal
Maximum thread count: 16
tnom = 27
temp = 27
method = modified trap
Warning: Pd = 0 is less than W.
Warning: Ps = 0 is less than W.
Warning: Pd = 0 is less than W.
Warning: Ps = 0 is less than W.
Total elapsed time: 0.137 seconds.

