LTspice 24.0.12 for Windows
Circuit: * C:\Users\tomto\Documents\skola\Skola\NAO\cv5\LT_data\simAC.asc
Start Time: Mon Apr 28 13:47:55 2025
solver = Normal
Maximum thread count: 16
tnom = 27
temp = 27
method = modified trap
WARNING: Less than two connections to node offset.  This node is used by eoffset.
Warning: Pd = 0 is less than W.
Warning: Ps = 0 is less than W.
Warning: Pd = 0 is less than W.
Warning: Ps = 0 is less than W.
Warning: Pd = 0 is less than W.
Warning: Ps = 0 is less than W.
Warning: Pd = 0 is less than W.
Warning: Ps = 0 is less than W.
Warning: Pd = 0 is less than W.
Warning: Ps = 0 is less than W.
Direct Newton iteration for .op point succeeded.
Total elapsed time: 0.105 seconds.

