LTspice 24.0.9 for Windows
Circuit: * C:\Users\TVavrinec\Documents\skola\NAO\lab-1\sim\Draft3N.asc
Start Time: Tue Feb 27 22:23:25 2024
solver = Normal
Maximum thread count: 16



Warning: Pd = 0 is less than W.
Warning: Ps = 0 is less than W.
.step vbs=0



.step vbs=0.001



.step vbs=0.002



.step vbs=0.003



.step vbs=0.004



.step vbs=0.005



.step vbs=0.006



.step vbs=0.007



.step vbs=0.008



.step vbs=0.009



.step vbs=0.01



.step vbs=0.011



.step vbs=0.012



.step vbs=0.013



.step vbs=0.014



.step vbs=0.015



.step vbs=0.016



.step vbs=0.017



.step vbs=0.018



.step vbs=0.019



.step vbs=0.02



.step vbs=0.021



.step vbs=0.022



.step vbs=0.023



.step vbs=0.024



.step vbs=0.025



.step vbs=0.026



.step vbs=0.027



.step vbs=0.028



.step vbs=0.029



.step vbs=0.03



.step vbs=0.031



.step vbs=0.032



.step vbs=0.033



.step vbs=0.034



.step vbs=0.035



.step vbs=0.036



.step vbs=0.037



.step vbs=0.038



.step vbs=0.039



.step vbs=0.04



.step vbs=0.041



.step vbs=0.042



.step vbs=0.043



.step vbs=0.044



.step vbs=0.045



.step vbs=0.046



.step vbs=0.047



.step vbs=0.048



.step vbs=0.049



.step vbs=0.05



.step vbs=0.051



.step vbs=0.052



.step vbs=0.053



.step vbs=0.054



.step vbs=0.055



.step vbs=0.056



.step vbs=0.057



.step vbs=0.058



.step vbs=0.059



.step vbs=0.06



.step vbs=0.061



.step vbs=0.062



.step vbs=0.063



.step vbs=0.064



.step vbs=0.065



.step vbs=0.066



.step vbs=0.067



.step vbs=0.068



.step vbs=0.069



.step vbs=0.07



.step vbs=0.071



.step vbs=0.0720000000000001



.step vbs=0.0730000000000001



.step vbs=0.0740000000000001



.step vbs=0.0750000000000001



.step vbs=0.0760000000000001



.step vbs=0.0770000000000001



.step vbs=0.0780000000000001



.step vbs=0.0790000000000001



.step vbs=0.0800000000000001



.step vbs=0.0810000000000001



.step vbs=0.0820000000000001



.step vbs=0.0830000000000001



.step vbs=0.0840000000000001



.step vbs=0.0850000000000001



.step vbs=0.0860000000000001



.step vbs=0.0870000000000001



.step vbs=0.0880000000000001



.step vbs=0.0890000000000001



.step vbs=0.0900000000000001



.step vbs=0.0910000000000001



.step vbs=0.0920000000000001



.step vbs=0.0930000000000001



.step vbs=0.0940000000000001



.step vbs=0.0950000000000001



.step vbs=0.0960000000000001



.step vbs=0.0970000000000001



.step vbs=0.0980000000000001



.step vbs=0.0990000000000001



.step vbs=0.1



.step vbs=0.101



.step vbs=0.102



.step vbs=0.103



.step vbs=0.104



.step vbs=0.105



.step vbs=0.106



.step vbs=0.107



.step vbs=0.108



.step vbs=0.109



.step vbs=0.11



.step vbs=0.111



.step vbs=0.112



.step vbs=0.113



.step vbs=0.114



.step vbs=0.115



.step vbs=0.116



.step vbs=0.117



.step vbs=0.118



.step vbs=0.119



.step vbs=0.12



.step vbs=0.121



.step vbs=0.122



.step vbs=0.123



.step vbs=0.124



.step vbs=0.125



.step vbs=0.126



.step vbs=0.127



.step vbs=0.128



.step vbs=0.129



.step vbs=0.13



.step vbs=0.131



.step vbs=0.132



.step vbs=0.133



.step vbs=0.134



.step vbs=0.135



.step vbs=0.136



.step vbs=0.137



.step vbs=0.138



.step vbs=0.139



.step vbs=0.14



.step vbs=0.141



.step vbs=0.142



.step vbs=0.143



.step vbs=0.144



.step vbs=0.145



.step vbs=0.146



.step vbs=0.147



.step vbs=0.148



.step vbs=0.149



.step vbs=0.15



.step vbs=0.151



.step vbs=0.152



.step vbs=0.153



.step vbs=0.154



.step vbs=0.155



.step vbs=0.156



.step vbs=0.157



.step vbs=0.158



.step vbs=0.159



.step vbs=0.16



.step vbs=0.161



.step vbs=0.162



.step vbs=0.163



.step vbs=0.164



.step vbs=0.165



.step vbs=0.166



.step vbs=0.167



.step vbs=0.168



.step vbs=0.169



.step vbs=0.17



.step vbs=0.171



.step vbs=0.172



.step vbs=0.173



.step vbs=0.174



.step vbs=0.175



.step vbs=0.176



.step vbs=0.177



.step vbs=0.178



.step vbs=0.179



.step vbs=0.18



.step vbs=0.181



.step vbs=0.182



.step vbs=0.183



.step vbs=0.184



.step vbs=0.185



.step vbs=0.186



.step vbs=0.187



.step vbs=0.188



.step vbs=0.189



.step vbs=0.19



.step vbs=0.191



.step vbs=0.192



.step vbs=0.193



.step vbs=0.194



.step vbs=0.195



.step vbs=0.196



.step vbs=0.197



.step vbs=0.198



.step vbs=0.199



.step vbs=0.2



.step vbs=0.201



.step vbs=0.202



.step vbs=0.203



.step vbs=0.204



.step vbs=0.205



.step vbs=0.206



.step vbs=0.207



.step vbs=0.208



.step vbs=0.209



.step vbs=0.21



.step vbs=0.211



.step vbs=0.212



.step vbs=0.213



.step vbs=0.214



.step vbs=0.215



.step vbs=0.216



.step vbs=0.217



.step vbs=0.218



.step vbs=0.219



.step vbs=0.22



.step vbs=0.221



.step vbs=0.222



.step vbs=0.223



.step vbs=0.224



.step vbs=0.225



.step vbs=0.226



.step vbs=0.227



.step vbs=0.228



.step vbs=0.229



.step vbs=0.23



.step vbs=0.231



.step vbs=0.232



.step vbs=0.233



.step vbs=0.234



.step vbs=0.235



.step vbs=0.236



.step vbs=0.237



.step vbs=0.238



.step vbs=0.239



.step vbs=0.24



.step vbs=0.241



.step vbs=0.242



.step vbs=0.243



.step vbs=0.244



.step vbs=0.245



.step vbs=0.246



.step vbs=0.247



.step vbs=0.248



.step vbs=0.249



.step vbs=0.25



.step vbs=0.251



.step vbs=0.252



.step vbs=0.253



.step vbs=0.254



.step vbs=0.255



.step vbs=0.256



.step vbs=0.257



.step vbs=0.258



.step vbs=0.259



.step vbs=0.26



.step vbs=0.261



.step vbs=0.262



.step vbs=0.263



.step vbs=0.264



.step vbs=0.265



.step vbs=0.266



.step vbs=0.267



.step vbs=0.268



.step vbs=0.269



.step vbs=0.27



.step vbs=0.271



.step vbs=0.272



.step vbs=0.273



.step vbs=0.274



.step vbs=0.275



.step vbs=0.276



.step vbs=0.277



.step vbs=0.278



.step vbs=0.279



.step vbs=0.28



.step vbs=0.281



.step vbs=0.282



.step vbs=0.283



.step vbs=0.284



.step vbs=0.285



.step vbs=0.286



.step vbs=0.287



.step vbs=0.288



.step vbs=0.289



.step vbs=0.29



.step vbs=0.291



.step vbs=0.292



.step vbs=0.293



.step vbs=0.294



.step vbs=0.295



.step vbs=0.296



.step vbs=0.297



.step vbs=0.298



.step vbs=0.299



.step vbs=0.3



.step vbs=0.301



.step vbs=0.302



.step vbs=0.303



.step vbs=0.304



.step vbs=0.305



.step vbs=0.306



.step vbs=0.307



.step vbs=0.308



.step vbs=0.309



.step vbs=0.31



.step vbs=0.311



.step vbs=0.312



.step vbs=0.313



.step vbs=0.314



.step vbs=0.315



.step vbs=0.316



.step vbs=0.317



.step vbs=0.318



.step vbs=0.319



.step vbs=0.32



.step vbs=0.321



.step vbs=0.322



.step vbs=0.323



.step vbs=0.324



.step vbs=0.325



.step vbs=0.326



.step vbs=0.327



.step vbs=0.328



.step vbs=0.329



.step vbs=0.33



.step vbs=0.331



.step vbs=0.332



.step vbs=0.333



.step vbs=0.334



.step vbs=0.335



.step vbs=0.336



.step vbs=0.337



.step vbs=0.338



.step vbs=0.339



.step vbs=0.34



.step vbs=0.341



.step vbs=0.342



.step vbs=0.343



.step vbs=0.344



.step vbs=0.345



.step vbs=0.346



.step vbs=0.347



.step vbs=0.348



.step vbs=0.349



.step vbs=0.35



.step vbs=0.351



.step vbs=0.352



.step vbs=0.353



.step vbs=0.354



.step vbs=0.355



.step vbs=0.356



.step vbs=0.357



.step vbs=0.358



.step vbs=0.359



.step vbs=0.36



.step vbs=0.361



.step vbs=0.362



.step vbs=0.363



.step vbs=0.364



.step vbs=0.365



.step vbs=0.366



.step vbs=0.367



.step vbs=0.368



.step vbs=0.369



.step vbs=0.37



.step vbs=0.371



.step vbs=0.372



.step vbs=0.373



.step vbs=0.374



.step vbs=0.375



.step vbs=0.376



.step vbs=0.377



.step vbs=0.378



.step vbs=0.379



.step vbs=0.38



.step vbs=0.381



.step vbs=0.382



.step vbs=0.383



.step vbs=0.384



.step vbs=0.385



.step vbs=0.386



.step vbs=0.387



.step vbs=0.388



.step vbs=0.389



.step vbs=0.39



.step vbs=0.391



.step vbs=0.392



.step vbs=0.393



.step vbs=0.394



.step vbs=0.395



.step vbs=0.396



.step vbs=0.397



.step vbs=0.398



.step vbs=0.399



.step vbs=0.4



.step vbs=0.401



.step vbs=0.402



.step vbs=0.403



.step vbs=0.404



.step vbs=0.405



.step vbs=0.406



.step vbs=0.407



.step vbs=0.408



.step vbs=0.409



.step vbs=0.41



.step vbs=0.411



.step vbs=0.412



.step vbs=0.413



.step vbs=0.414



.step vbs=0.415



.step vbs=0.416



.step vbs=0.417



.step vbs=0.418



.step vbs=0.419



.step vbs=0.42



.step vbs=0.421



.step vbs=0.422



.step vbs=0.423



.step vbs=0.424



.step vbs=0.425



.step vbs=0.426



.step vbs=0.427



.step vbs=0.428



.step vbs=0.429



.step vbs=0.43



.step vbs=0.431



.step vbs=0.432



.step vbs=0.433



.step vbs=0.434



.step vbs=0.435



.step vbs=0.436



.step vbs=0.437



.step vbs=0.438



.step vbs=0.439



.step vbs=0.44



.step vbs=0.441



.step vbs=0.442



.step vbs=0.443



.step vbs=0.444



.step vbs=0.445



.step vbs=0.446



.step vbs=0.447



.step vbs=0.448



.step vbs=0.449



.step vbs=0.45



.step vbs=0.451



.step vbs=0.452



.step vbs=0.453



.step vbs=0.454



.step vbs=0.455



.step vbs=0.456



.step vbs=0.457



.step vbs=0.458



.step vbs=0.459



.step vbs=0.46



.step vbs=0.461



.step vbs=0.462



.step vbs=0.463



.step vbs=0.464



.step vbs=0.465



.step vbs=0.466



.step vbs=0.467



.step vbs=0.468



.step vbs=0.469



.step vbs=0.47



.step vbs=0.471



.step vbs=0.472



.step vbs=0.473



.step vbs=0.474



.step vbs=0.475



.step vbs=0.476



.step vbs=0.477



.step vbs=0.478



.step vbs=0.479



.step vbs=0.48



.step vbs=0.481



.step vbs=0.482



.step vbs=0.483



.step vbs=0.484



.step vbs=0.485



.step vbs=0.486



.step vbs=0.487



.step vbs=0.488



.step vbs=0.489



.step vbs=0.49



.step vbs=0.491



.step vbs=0.492



.step vbs=0.493



.step vbs=0.494



.step vbs=0.495



.step vbs=0.496



.step vbs=0.497



.step vbs=0.498



.step vbs=0.499



.step vbs=0.5



.step vbs=0.501



.step vbs=0.502



.step vbs=0.503



.step vbs=0.504



.step vbs=0.505



.step vbs=0.506



.step vbs=0.507



.step vbs=0.508



.step vbs=0.509



.step vbs=0.51



.step vbs=0.511



.step vbs=0.512



.step vbs=0.513



.step vbs=0.514



.step vbs=0.515



.step vbs=0.516



.step vbs=0.517



.step vbs=0.518



.step vbs=0.519



.step vbs=0.52



.step vbs=0.521



.step vbs=0.522



.step vbs=0.523



.step vbs=0.524



.step vbs=0.525



.step vbs=0.526



.step vbs=0.527



.step vbs=0.528



.step vbs=0.529



.step vbs=0.53



.step vbs=0.531



.step vbs=0.532



.step vbs=0.533



.step vbs=0.534



.step vbs=0.535



.step vbs=0.536



.step vbs=0.537



.step vbs=0.538



.step vbs=0.539



.step vbs=0.54



.step vbs=0.541



.step vbs=0.542



.step vbs=0.543



.step vbs=0.544



.step vbs=0.545



.step vbs=0.546



.step vbs=0.547



.step vbs=0.548



.step vbs=0.549



.step vbs=0.55



.step vbs=0.551



.step vbs=0.552



.step vbs=0.553



.step vbs=0.554



.step vbs=0.555



.step vbs=0.556



.step vbs=0.557



.step vbs=0.558



.step vbs=0.559



.step vbs=0.56



.step vbs=0.561



.step vbs=0.562



.step vbs=0.563



.step vbs=0.564



.step vbs=0.565



.step vbs=0.566



.step vbs=0.567



.step vbs=0.568



.step vbs=0.569



.step vbs=0.57



.step vbs=0.571



.step vbs=0.572



.step vbs=0.573



.step vbs=0.574



.step vbs=0.575



.step vbs=0.576



.step vbs=0.577



.step vbs=0.578



.step vbs=0.579



.step vbs=0.58



.step vbs=0.581



.step vbs=0.582



.step vbs=0.583



.step vbs=0.584



.step vbs=0.585



.step vbs=0.586



.step vbs=0.587



.step vbs=0.588



.step vbs=0.589



.step vbs=0.59



.step vbs=0.591



.step vbs=0.592



.step vbs=0.593



.step vbs=0.594



.step vbs=0.595



.step vbs=0.596



.step vbs=0.597



.step vbs=0.598



.step vbs=0.599



.step vbs=0.6



.step vbs=0.601



.step vbs=0.602



.step vbs=0.603



.step vbs=0.604



.step vbs=0.605



.step vbs=0.606



.step vbs=0.607



.step vbs=0.608



.step vbs=0.609



.step vbs=0.61



.step vbs=0.611



.step vbs=0.612



.step vbs=0.613



.step vbs=0.614



.step vbs=0.615



.step vbs=0.616



.step vbs=0.617



.step vbs=0.618



.step vbs=0.619



.step vbs=0.62



.step vbs=0.621



.step vbs=0.622



.step vbs=0.623



.step vbs=0.624



.step vbs=0.625



.step vbs=0.626



.step vbs=0.627



.step vbs=0.628



.step vbs=0.629



.step vbs=0.63



.step vbs=0.631



.step vbs=0.632



.step vbs=0.633



.step vbs=0.634



.step vbs=0.635



.step vbs=0.636



.step vbs=0.637



.step vbs=0.638



.step vbs=0.639



.step vbs=0.64



.step vbs=0.641



.step vbs=0.642



.step vbs=0.643



.step vbs=0.644



.step vbs=0.645



.step vbs=0.646



.step vbs=0.647



.step vbs=0.648



.step vbs=0.649



.step vbs=0.65



.step vbs=0.651



.step vbs=0.652



.step vbs=0.653



.step vbs=0.654



.step vbs=0.655



.step vbs=0.656



.step vbs=0.657



.step vbs=0.658



.step vbs=0.659



.step vbs=0.66



.step vbs=0.661



.step vbs=0.662



.step vbs=0.663



.step vbs=0.664



.step vbs=0.665



.step vbs=0.666



.step vbs=0.667



.step vbs=0.668



.step vbs=0.669



.step vbs=0.67



.step vbs=0.671



.step vbs=0.672



.step vbs=0.673



.step vbs=0.674



.step vbs=0.675



.step vbs=0.676



.step vbs=0.677



.step vbs=0.678



.step vbs=0.679



.step vbs=0.68



.step vbs=0.681



.step vbs=0.682



.step vbs=0.683



.step vbs=0.684



.step vbs=0.685



.step vbs=0.686



.step vbs=0.687



.step vbs=0.688000000000001



.step vbs=0.689000000000001



.step vbs=0.690000000000001



.step vbs=0.691000000000001



.step vbs=0.692000000000001



.step vbs=0.693000000000001



.step vbs=0.694000000000001



.step vbs=0.695000000000001



.step vbs=0.696000000000001



.step vbs=0.697000000000001



.step vbs=0.698000000000001



.step vbs=0.699000000000001



.step vbs=0.700000000000001



.step vbs=0.701000000000001



.step vbs=0.702000000000001



.step vbs=0.703000000000001



.step vbs=0.704000000000001



.step vbs=0.705000000000001



.step vbs=0.706000000000001



.step vbs=0.707000000000001



.step vbs=0.708000000000001



.step vbs=0.709000000000001



.step vbs=0.710000000000001



.step vbs=0.711000000000001



.step vbs=0.712000000000001



.step vbs=0.713000000000001



.step vbs=0.714000000000001



.step vbs=0.715000000000001



.step vbs=0.716000000000001



.step vbs=0.717000000000001



.step vbs=0.718000000000001



.step vbs=0.719000000000001



.step vbs=0.720000000000001



.step vbs=0.721000000000001



.step vbs=0.722000000000001



.step vbs=0.723000000000001



.step vbs=0.724000000000001



.step vbs=0.725000000000001



.step vbs=0.726000000000001



.step vbs=0.727000000000001



.step vbs=0.728000000000001



.step vbs=0.729000000000001



.step vbs=0.730000000000001



.step vbs=0.731000000000001



.step vbs=0.732000000000001



.step vbs=0.733000000000001



.step vbs=0.734000000000001



.step vbs=0.735000000000001



.step vbs=0.736000000000001



.step vbs=0.737000000000001



.step vbs=0.738000000000001



.step vbs=0.739000000000001



.step vbs=0.740000000000001



.step vbs=0.741000000000001



.step vbs=0.742000000000001



.step vbs=0.743000000000001



.step vbs=0.744000000000001



.step vbs=0.745000000000001



.step vbs=0.746000000000001



.step vbs=0.747000000000001



.step vbs=0.748000000000001



.step vbs=0.749000000000001



.step vbs=0.750000000000001



.step vbs=0.751000000000001



.step vbs=0.752000000000001



.step vbs=0.753000000000001



.step vbs=0.754000000000001



.step vbs=0.755000000000001



.step vbs=0.756000000000001



.step vbs=0.757000000000001



.step vbs=0.758000000000001



.step vbs=0.759000000000001



.step vbs=0.760000000000001



.step vbs=0.761000000000001



.step vbs=0.762000000000001



.step vbs=0.763000000000001



.step vbs=0.764000000000001



.step vbs=0.765000000000001



.step vbs=0.766000000000001



.step vbs=0.767000000000001



.step vbs=0.768000000000001



.step vbs=0.769000000000001



.step vbs=0.770000000000001



.step vbs=0.771000000000001



.step vbs=0.772000000000001



.step vbs=0.773000000000001



.step vbs=0.774000000000001



.step vbs=0.775000000000001



.step vbs=0.776000000000001



.step vbs=0.777000000000001



.step vbs=0.778000000000001



.step vbs=0.779000000000001



.step vbs=0.780000000000001



.step vbs=0.781000000000001



.step vbs=0.782000000000001



.step vbs=0.783000000000001



.step vbs=0.784000000000001



.step vbs=0.785000000000001



.step vbs=0.786000000000001



.step vbs=0.787000000000001



.step vbs=0.788000000000001



.step vbs=0.789000000000001



.step vbs=0.790000000000001



.step vbs=0.791000000000001



.step vbs=0.792000000000001



.step vbs=0.793000000000001



.step vbs=0.794000000000001



.step vbs=0.795000000000001



.step vbs=0.796000000000001



.step vbs=0.797000000000001



.step vbs=0.798000000000001



.step vbs=0.799000000000001



.step vbs=0.800000000000001



.step vbs=0.801000000000001



.step vbs=0.802000000000001



.step vbs=0.803000000000001



.step vbs=0.804000000000001



.step vbs=0.805000000000001



.step vbs=0.806000000000001



.step vbs=0.807000000000001



.step vbs=0.808000000000001



.step vbs=0.809000000000001



.step vbs=0.810000000000001



.step vbs=0.811000000000001



.step vbs=0.812000000000001



.step vbs=0.813000000000001



.step vbs=0.814000000000001



.step vbs=0.815000000000001



.step vbs=0.816000000000001



.step vbs=0.817000000000001



.step vbs=0.818000000000001



.step vbs=0.819000000000001



.step vbs=0.820000000000001



.step vbs=0.821000000000001



.step vbs=0.822000000000001



.step vbs=0.823000000000001



.step vbs=0.824000000000001



.step vbs=0.825000000000001



.step vbs=0.826000000000001



.step vbs=0.827000000000001



.step vbs=0.828000000000001



.step vbs=0.829000000000001



.step vbs=0.830000000000001



.step vbs=0.831000000000001



.step vbs=0.832000000000001



.step vbs=0.833000000000001



.step vbs=0.834000000000001



.step vbs=0.835000000000001



.step vbs=0.836000000000001



.step vbs=0.837000000000001



.step vbs=0.838000000000001



.step vbs=0.839000000000001



.step vbs=0.840000000000001



.step vbs=0.841000000000001



.step vbs=0.842000000000001



.step vbs=0.843000000000001



.step vbs=0.844000000000001



.step vbs=0.845000000000001



.step vbs=0.846000000000001



.step vbs=0.847000000000001



.step vbs=0.848000000000001



.step vbs=0.849000000000001



.step vbs=0.850000000000001



.step vbs=0.851000000000001



.step vbs=0.852000000000001



.step vbs=0.853000000000001



.step vbs=0.854000000000001



.step vbs=0.855000000000001



.step vbs=0.856000000000001



.step vbs=0.857000000000001



.step vbs=0.858000000000001



.step vbs=0.859000000000001



.step vbs=0.860000000000001



.step vbs=0.861000000000001



.step vbs=0.862000000000001



.step vbs=0.863000000000001



.step vbs=0.864000000000001



.step vbs=0.865000000000001



.step vbs=0.866000000000001



.step vbs=0.867000000000001



.step vbs=0.868000000000001



.step vbs=0.869000000000001



.step vbs=0.870000000000001



.step vbs=0.871000000000001



.step vbs=0.872000000000001



.step vbs=0.873000000000001



.step vbs=0.874000000000001



.step vbs=0.875000000000001



.step vbs=0.876000000000001



.step vbs=0.877000000000001



.step vbs=0.878000000000001



.step vbs=0.879000000000001



.step vbs=0.880000000000001



.step vbs=0.881000000000001



.step vbs=0.882000000000001



.step vbs=0.883000000000001



.step vbs=0.884000000000001



.step vbs=0.885000000000001



.step vbs=0.886000000000001



.step vbs=0.887000000000001



.step vbs=0.888000000000001



.step vbs=0.889000000000001



.step vbs=0.890000000000001



.step vbs=0.891000000000001



.step vbs=0.892000000000001



.step vbs=0.893000000000001



.step vbs=0.894000000000001



.step vbs=0.895000000000001



.step vbs=0.896000000000001



.step vbs=0.897000000000001



.step vbs=0.898000000000001



.step vbs=0.899000000000001



.step vbs=0.900000000000001



.step vbs=0.901000000000001



.step vbs=0.902000000000001



.step vbs=0.903000000000001



.step vbs=0.904000000000001



.step vbs=0.905000000000001



.step vbs=0.906000000000001



.step vbs=0.907000000000001



.step vbs=0.908000000000001



.step vbs=0.909000000000001



.step vbs=0.910000000000001



.step vbs=0.911000000000001



.step vbs=0.912000000000001



.step vbs=0.913000000000001



.step vbs=0.914000000000001



.step vbs=0.915000000000001



.step vbs=0.916000000000001



.step vbs=0.917000000000001



.step vbs=0.918000000000001



.step vbs=0.919000000000001



.step vbs=0.920000000000001



.step vbs=0.921000000000001



.step vbs=0.922000000000001



.step vbs=0.923000000000001



.step vbs=0.924000000000001



.step vbs=0.925000000000001



.step vbs=0.926000000000001



.step vbs=0.927000000000001



.step vbs=0.928000000000001



.step vbs=0.929000000000001



.step vbs=0.930000000000001



.step vbs=0.931000000000001



.step vbs=0.932000000000001



.step vbs=0.933000000000001



.step vbs=0.934000000000001



.step vbs=0.935000000000001



.step vbs=0.936000000000001



.step vbs=0.937000000000001



.step vbs=0.938000000000001



.step vbs=0.939000000000001



.step vbs=0.940000000000001



.step vbs=0.941000000000001



.step vbs=0.942000000000001



.step vbs=0.943000000000001



.step vbs=0.944000000000001



.step vbs=0.945000000000001



.step vbs=0.946000000000001



.step vbs=0.947000000000001



.step vbs=0.948000000000001



.step vbs=0.949000000000001



.step vbs=0.950000000000001



.step vbs=0.951000000000001



.step vbs=0.952000000000001



.step vbs=0.953000000000001



.step vbs=0.954000000000001



.step vbs=0.955000000000001



.step vbs=0.956000000000001



.step vbs=0.957000000000001



.step vbs=0.958000000000001



.step vbs=0.959000000000001



.step vbs=0.960000000000001



.step vbs=0.961000000000001



.step vbs=0.962000000000001



.step vbs=0.963000000000001



.step vbs=0.964000000000001



.step vbs=0.965000000000001



.step vbs=0.966000000000001



.step vbs=0.967000000000001



.step vbs=0.968000000000001



.step vbs=0.969000000000001



.step vbs=0.970000000000001



.step vbs=0.971000000000001



.step vbs=0.972000000000001



.step vbs=0.973000000000001



.step vbs=0.974000000000001



.step vbs=0.975000000000001



.step vbs=0.976000000000001



.step vbs=0.977000000000001



.step vbs=0.978000000000001



.step vbs=0.979000000000001



.step vbs=0.980000000000001



.step vbs=0.981000000000001



.step vbs=0.982000000000001



.step vbs=0.983000000000001



.step vbs=0.984000000000001



.step vbs=0.985000000000001



.step vbs=0.986000000000001



.step vbs=0.987000000000001



.step vbs=0.988000000000001



.step vbs=0.989000000000001



.step vbs=0.990000000000001



.step vbs=0.991000000000001



.step vbs=0.992000000000001



.step vbs=0.993000000000001



.step vbs=0.994000000000001



.step vbs=0.995000000000001



.step vbs=0.996000000000001



.step vbs=0.997000000000001



.step vbs=0.998000000000001



.step vbs=0.999000000000001
tnom = 27
temp = 27
method = modified trap
.step vbs=1


Measurement: uth
  step	v(vg)	at
     1	0.459029	0.459029
     2	0.461759	0.461759
     3	0.464487	0.464487
     4	0.467213	0.467213
     5	0.468758	0.468758
     6	0.470046	0.470046
     7	0.471329	0.471329
     8	0.472613	0.472613
     9	0.473898	0.473898
    10	0.475182	0.475182
    11	0.476465	0.476465
    12	0.477749	0.477749
    13	0.479033	0.479033
    14	0.480315	0.480315
    15	0.481598	0.481598
    16	0.482882	0.482882
    17	0.484165	0.484165
    18	0.485447	0.485447
    19	0.48673	0.48673
    20	0.488014	0.488014
    21	0.489294	0.489294
    22	0.490576	0.490576
    23	0.49186	0.49186
    24	0.493141	0.493141
    25	0.494422	0.494422
    26	0.495704	0.495704
    27	0.496988	0.496988
    28	0.498267	0.498267
    29	0.499548	0.499548
    30	0.50083	0.50083
    31	0.502112	0.502112
    32	0.503392	0.503392
    33	0.504673	0.504673
    34	0.505955	0.505955
    35	0.507234	0.507234
    36	0.508514	0.508514
    37	0.509795	0.509795
    38	0.511076	0.511076
    39	0.512355	0.512355
    40	0.513635	0.513635
    41	0.514916	0.514916
    42	0.516195	0.516195
    43	0.517474	0.517474
    44	0.518754	0.518754
    45	0.520034	0.520034
    46	0.521312	0.521312
    47	0.522591	0.522591
    48	0.523871	0.523871
    49	0.52515	0.52515
    50	0.526427	0.526427
    51	0.527706	0.527706
    52	0.528986	0.528986
    53	0.530263	0.530263
    54	0.531541	0.531541
    55	0.53282	0.53282
    56	0.534098	0.534098
    57	0.535375	0.535375
    58	0.536653	0.536653
    59	0.537932	0.537932
    60	0.539208	0.539208
    61	0.540485	0.540485
    62	0.541763	0.541763
    63	0.543041	0.543041
    64	0.544317	0.544317
    65	0.545593	0.545593
    66	0.546871	0.546871
    67	0.548148	0.548148
    68	0.549423	0.549423
    69	0.5507	0.5507
    70	0.551978	0.551978
    71	0.553253	0.553253
    72	0.554528	0.554528
    73	0.555805	0.555805
    74	0.557081	0.557081
    75	0.558356	0.558356
    76	0.559631	0.559631
    77	0.560908	0.560908
    78	0.562183	0.562183
    79	0.563457	0.563457
    80	0.564733	0.564733
    81	0.566009	0.566009
    82	0.567282	0.567282
    83	0.568557	0.568557
    84	0.569832	0.569832
    85	0.571107	0.571107
    86	0.57238	0.57238
    87	0.573655	0.573655
    88	0.57493	0.57493
    89	0.576203	0.576204
    90	0.577477	0.577477
    91	0.578751	0.578751
    92	0.580026	0.580026
    93	0.581298	0.581298
    94	0.582571	0.582571
    95	0.583846	0.583846
    96	0.585119	0.585119
    97	0.586391	0.586391
    98	0.587664	0.587664
    99	0.588938	0.588938
   100	0.59021	0.59021
   101	0.591482	0.591482
   102	0.592755	0.592755
   103	0.594029	0.594029
   104	0.5953	0.5953
   105	0.596572	0.596572
   106	0.597845	0.597845
   107	0.599117	0.599117
   108	0.600388	0.600388
   109	0.601659	0.601659
   110	0.602932	0.602932
   111	0.604203	0.604203
   112	0.605474	0.605474
   113	0.606745	0.606745
   114	0.608018	0.608018
   115	0.609288	0.609288
   116	0.610558	0.610558
   117	0.61183	0.61183
   118	0.613101	0.613101
   119	0.61437	0.61437
   120	0.615641	0.615641
   121	0.616912	0.616912
   122	0.618182	0.618182
   123	0.619451	0.619451
   124	0.620722	0.620722
   125	0.621993	0.621993
   126	0.623262	0.623262
   127	0.624531	0.624531
   128	0.625801	0.625801
   129	0.627071	0.627071
   130	0.62834	0.62834
   131	0.629609	0.629609
   132	0.630879	0.630879
   133	0.632148	0.632148
   134	0.633416	0.633416
   135	0.634685	0.634685
   136	0.635955	0.635955
   137	0.637222	0.637222
   138	0.63849	0.63849
   139	0.639759	0.639759
   140	0.641029	0.641029
   141	0.642295	0.642295
   142	0.643563	0.643563
   143	0.644832	0.644832
   144	0.6461	0.6461
   145	0.647367	0.647367
   146	0.648634	0.648634
   147	0.649903	0.649903
   148	0.65117	0.65117
   149	0.652436	0.652436
   150	0.653704	0.653704
   151	0.654972	0.654972
   152	0.656238	0.656238
   153	0.657504	0.657504
   154	0.658772	0.658772
   155	0.660039	0.660039
   156	0.661304	0.661304
   157	0.662571	0.662571
   158	0.663838	0.663838
   159	0.665104	0.665104
   160	0.666369	0.666369
   161	0.667635	0.667635
   162	0.668902	0.668902
   163	0.670168	0.670168
   164	0.671432	0.671432
   165	0.672698	0.672698
   166	0.673965	0.673965
   167	0.675229	0.675229
   168	0.676494	0.676494
   169	0.67776	0.67776
   170	0.679026	0.679026
   171	0.680289	0.680289
   172	0.681554	0.681554
   173	0.682819	0.682819
   174	0.684085	0.684084
   175	0.685348	0.685348
   176	0.686612	0.686612
   177	0.687877	0.687877
   178	0.689141	0.689141
   179	0.690404	0.690404
   180	0.691669	0.691669
   181	0.692934	0.692934
   182	0.694197	0.694197
   183	0.69546	0.69546
   184	0.696724	0.696724
   185	0.697989	0.697989
   186	0.69925	0.69925
   187	0.700513	0.700513
   188	0.701777	0.701777
   189	0.703041	0.703041
   190	0.704303	0.704303
   191	0.705565	0.705565
   192	0.706829	0.706829
   193	0.708092	0.708092
   194	0.709353	0.709353
   195	0.710615	0.710615
   196	0.711879	0.711879
   197	0.713141	0.713141
   198	0.714402	0.714402
   199	0.715664	0.715664
   200	0.716927	0.716927
   201	0.718188	0.718188
   202	0.719449	0.719449
   203	0.720711	0.720711
   204	0.721974	0.721974
   205	0.723234	0.723234
   206	0.724495	0.724495
   207	0.725757	0.725757
   208	0.727019	0.727019
   209	0.728279	0.728279
   210	0.729539	0.729539
   211	0.730801	0.730801
   212	0.732062	0.732062
   213	0.733321	0.733321
   214	0.734582	0.734582
   215	0.735843	0.735843
   216	0.737104	0.737104
   217	0.738363	0.738363
   218	0.739623	0.739623
   219	0.740884	0.740884
   220	0.742143	0.742143
   221	0.743402	0.743402
   222	0.744662	0.744662
   223	0.745923	0.745923
   224	0.747182	0.747182
   225	0.74844	0.74844
   226	0.7497	0.7497
   227	0.75096	0.750961
   228	0.752218	0.752218
   229	0.753477	0.753477
   230	0.754736	0.754736
   231	0.755996	0.755997
   232	0.757254	0.757254
   233	0.758512	0.758512
   234	0.759771	0.759771
   235	0.76103	0.76103
   236	0.762287	0.762287
   237	0.763545	0.763545
   238	0.764804	0.764804
   239	0.766063	0.766063
   240	0.767319	0.767319
   241	0.768577	0.768577
   242	0.769835	0.769835
   243	0.771094	0.771093
   244	0.77235	0.77235
   245	0.773607	0.773607
   246	0.774865	0.774865
   247	0.776123	0.776123
   248	0.777379	0.777379
   249	0.778636	0.778636
   250	0.779894	0.779894
   251	0.78115	0.78115
   252	0.782406	0.782406
   253	0.783663	0.783663
   254	0.784921	0.784921
   255	0.786177	0.786177
   256	0.787432	0.787432
   257	0.788689	0.788689
   258	0.789946	0.789946
   259	0.791201	0.791201
   260	0.792457	0.792457
   261	0.793713	0.793713
   262	0.79497	0.79497
   263	0.796224	0.796224
   264	0.797479	0.797479
   265	0.798735	0.798735
   266	0.799992	0.799992
   267	0.801246	0.801246
   268	0.802501	0.802501
   269	0.803756	0.803756
   270	0.805013	0.805013
   271	0.806266	0.806266
   272	0.807521	0.807521
   273	0.808776	0.808776
   274	0.810032	0.810032
   275	0.811285	0.811285
   276	0.812539	0.812539
   277	0.813794	0.813794
   278	0.815049	0.815049
   279	0.816302	0.816302
   280	0.817556	0.817556
   281	0.818811	0.818811
   282	0.820065	0.820065
   283	0.821318	0.821318
   284	0.822571	0.822571
   285	0.823826	0.823826
   286	0.82508	0.82508
   287	0.826332	0.826332
   288	0.827585	0.827585
   289	0.828839	0.828839
   290	0.830093	0.830093
   291	0.831345	0.831345
   292	0.832598	0.832598
   293	0.833852	0.833852
   294	0.835105	0.835105
   295	0.836356	0.836356
   296	0.837609	0.837609
   297	0.838862	0.838862
   298	0.840115	0.840115
   299	0.841366	0.841366
   300	0.842618	0.842618
   301	0.843871	0.843871
   302	0.845123	0.845123
   303	0.846374	0.846374
   304	0.847626	0.847626
   305	0.848879	0.848879
   306	0.850131	0.850131
   307	0.851381	0.851381
   308	0.852633	0.852633
   309	0.853885	0.853885
   310	0.855136	0.855136
   311	0.856387	0.856387
   312	0.857638	0.857638
   313	0.85889	0.85889
   314	0.860141	0.860141
   315	0.861391	0.861391
   316	0.862642	0.862642
   317	0.863893	0.863893
   318	0.865144	0.865144
   319	0.866393	0.866393
   320	0.867644	0.867644
   321	0.868895	0.868895
   322	0.870145	0.870145
   323	0.871395	0.871395
   324	0.872645	0.872645
   325	0.873896	0.873896
   326	0.875145	0.875145
   327	0.876394	0.876394
   328	0.877644	0.877644
   329	0.878895	0.878895
   330	0.880144	0.880144
   331	0.881393	0.881393
   332	0.882642	0.882642
   333	0.883893	0.883893
   334	0.885141	0.885141
   335	0.88639	0.88639
   336	0.887639	0.887639
   337	0.888889	0.888889
   338	0.890137	0.890137
   339	0.891385	0.891385
   340	0.892634	0.892634
   341	0.893884	0.893884
   342	0.895132	0.895132
   343	0.896379	0.896379
   344	0.897628	0.897628
   345	0.898877	0.898877
   346	0.900125	0.900125
   347	0.901372	0.901372
   348	0.90262	0.90262
   349	0.903869	0.903869
   350	0.905117	0.905117
   351	0.906364	0.906363
   352	0.907611	0.907611
   353	0.90886	0.90886
   354	0.910107	0.910107
   355	0.911354	0.911354
   356	0.912601	0.912601
   357	0.913849	0.913849
   358	0.915096	0.915096
   359	0.916342	0.916342
   360	0.917589	0.917589
   361	0.918837	0.918837
   362	0.920084	0.920084
   363	0.92133	0.92133
   364	0.922576	0.922576
   365	0.923823	0.923823
   366	0.92507	0.92507
   367	0.926315	0.926315
   368	0.927561	0.927561
   369	0.928808	0.928808
   370	0.930055	0.930055
   371	0.9313	0.9313
   372	0.932546	0.932546
   373	0.933792	0.933792
   374	0.935039	0.935039
   375	0.936283	0.936283
   376	0.937529	0.937529
   377	0.938775	0.938775
   378	0.940021	0.940022
   379	0.941265	0.941265
   380	0.94251	0.94251
   381	0.943756	0.943756
   382	0.945003	0.945003
   383	0.946246	0.946246
   384	0.94749	0.94749
   385	0.948736	0.948736
   386	0.949982	0.949982
   387	0.951225	0.951225
   388	0.952469	0.952469
   389	0.953714	0.953714
   390	0.95496	0.95496
   391	0.956203	0.956203
   392	0.957447	0.957447
   393	0.958691	0.958691
   394	0.959937	0.959937
   395	0.96118	0.96118
   396	0.962423	0.962423
   397	0.963667	0.963667
   398	0.964912	0.964912
   399	0.966156	0.966156
   400	0.967398	0.967398
   401	0.968642	0.968642
   402	0.969886	0.969886
   403	0.97113	0.97113
   404	0.972372	0.972372
   405	0.973615	0.973615
   406	0.974859	0.974859
   407	0.976103	0.976103
   408	0.977344	0.977344
   409	0.978587	0.978587
   410	0.979831	0.979831
   411	0.981074	0.981074
   412	0.982316	0.982316
   413	0.983558	0.983558
   414	0.984801	0.984801
   415	0.986045	0.986045
   416	0.987285	0.987286
   417	0.988527	0.988527
   418	0.98977	0.98977
   419	0.991014	0.991014
   420	0.992254	0.992254
   421	0.993496	0.993496
   422	0.994738	0.994738
   423	0.995981	0.995981
   424	0.997222	0.997222
   425	0.998463	0.998463
   426	0.999704	0.999704
   427	1.00095	1.00095
   428	1.00219	1.00219
   429	1.00343	1.00343
   430	1.00467	1.00467
   431	1.00591	1.00591
   432	1.00715	1.00715
   433	1.00839	1.00839
   434	1.00963	1.00963
   435	1.01088	1.01088
   436	1.01212	1.01212
   437	1.01336	1.01336
   438	1.0146	1.0146
   439	1.01584	1.01584
   440	1.01708	1.01708
   441	1.01832	1.01832
   442	1.01956	1.01956
   443	1.0208	1.0208
   444	1.02204	1.02204
   445	1.02328	1.02328
   446	1.02452	1.02452
   447	1.02576	1.02576
   448	1.027	1.027
   449	1.02824	1.02824
   450	1.02948	1.02948
   451	1.03072	1.03072
   452	1.03196	1.03196
   453	1.0332	1.0332
   454	1.03444	1.03444
   455	1.03568	1.03568
   456	1.03692	1.03692
   457	1.03815	1.03815
   458	1.03939	1.03939
   459	1.04063	1.04063
   460	1.04187	1.04187
   461	1.04311	1.04311
   462	1.04435	1.04435
   463	1.04559	1.04559
   464	1.04683	1.04683
   465	1.04807	1.04807
   466	1.0493	1.0493
   467	1.05054	1.05054
   468	1.05178	1.05178
   469	1.05302	1.05302
   470	1.05426	1.05426
   471	1.05549	1.05549
   472	1.05673	1.05673
   473	1.05797	1.05797
   474	1.05921	1.05921
   475	1.06045	1.06045
   476	1.06168	1.06168
   477	1.06292	1.06292
   478	1.06416	1.06416
   479	1.0654	1.0654
   480	1.06663	1.06663
   481	1.06787	1.06787
   482	1.06911	1.06911
   483	1.07035	1.07035
   484	1.07158	1.07158
   485	1.07282	1.07282
   486	1.07406	1.07406
   487	1.07529	1.07529
   488	1.07653	1.07653
   489	1.07777	1.07777
   490	1.07901	1.07901
   491	1.08024	1.08024
   492	1.08148	1.08148
   493	1.08271	1.08271
   494	1.08395	1.08395
   495	1.08519	1.08519
   496	1.08642	1.08642
   497	1.08766	1.08766
   498	1.0889	1.0889
   499	1.09013	1.09013
   500	1.09137	1.09137
   501	1.0926	1.0926
   502	1.09384	1.09384
   503	1.09508	1.09508
   504	1.09631	1.09631
   505	1.09755	1.09755
   506	1.09878	1.09878
   507	1.10002	1.10002
   508	1.10125	1.10125
   509	1.10249	1.10249
   510	1.10372	1.10372
   511	1.10496	1.10496
   512	1.10619	1.10619
   513	1.10743	1.10743
   514	1.10866	1.10866
   515	1.1099	1.1099
   516	1.11113	1.11113
   517	1.11237	1.11237
   518	1.1136	1.1136
   519	1.11484	1.11484
   520	1.11607	1.11607
   521	1.11731	1.11731
   522	1.11854	1.11854
   523	1.11978	1.11978
   524	1.12101	1.12101
   525	1.12224	1.12224
   526	1.12348	1.12348
   527	1.12471	1.12471
   528	1.12595	1.12595
   529	1.12718	1.12718
   530	1.12841	1.12841
   531	1.12965	1.12965
   532	1.13088	1.13088
   533	1.13212	1.13212
   534	1.13335	1.13335
   535	1.13458	1.13458
   536	1.13582	1.13582
   537	1.13705	1.13705
   538	1.13828	1.13828
   539	1.13952	1.13952
   540	1.14075	1.14075
   541	1.14199	1.14199
   542	1.14322	1.14322
   543	1.14445	1.14445
   544	1.14568	1.14568
   545	1.14692	1.14692
   546	1.14815	1.14815
   547	1.14938	1.14938
   548	1.15061	1.15061
   549	1.15185	1.15185
   550	1.15308	1.15308
   551	1.15431	1.15431
   552	1.15554	1.15554
   553	1.15678	1.15678
   554	1.15801	1.15801
   555	1.15924	1.15924
   556	1.16047	1.16047
   557	1.16171	1.16171
   558	1.16294	1.16294
   559	1.16417	1.16417
   560	1.1654	1.1654
   561	1.16663	1.16663
   562	1.16787	1.16787
   563	1.1691	1.1691
   564	1.17033	1.17033
   565	1.17156	1.17156
   566	1.17279	1.17279
   567	1.17403	1.17403
   568	1.17526	1.17526
   569	1.17649	1.17649
   570	1.17772	1.17772
   571	1.17895	1.17895
   572	1.18018	1.18018
   573	1.18141	1.18141
   574	1.18264	1.18264
   575	1.18387	1.18387
   576	1.18511	1.18511
   577	1.18634	1.18634
   578	1.18757	1.18757
   579	1.1888	1.1888
   580	1.19003	1.19003
   581	1.19126	1.19126
   582	1.19249	1.19249
   583	1.19372	1.19372
   584	1.19495	1.19495
   585	1.19618	1.19618
   586	1.19741	1.19741
   587	1.19864	1.19864
   588	1.19987	1.19987
   589	1.2011	1.2011
   590	1.20233	1.20233
   591	1.20356	1.20356
   592	1.20479	1.20479
   593	1.20602	1.20602
   594	1.20725	1.20725
   595	1.20848	1.20848
   596	1.20971	1.20971
   597	1.21094	1.21094
   598	1.21217	1.21217
   599	1.2134	1.2134
   600	1.21463	1.21463
   601	1.21586	1.21586
   602	1.21709	1.21709
   603	1.21832	1.21832
   604	1.21955	1.21955
   605	1.22078	1.22078
   606	1.22201	1.22201
   607	1.22324	1.22324
   608	1.22446	1.22446
   609	1.22569	1.22569
   610	1.22692	1.22692
   611	1.22815	1.22815
   612	1.22938	1.22938
   613	1.23061	1.23061
   614	1.23184	1.23184
   615	1.23307	1.23307
   616	1.2343	1.2343
   617	1.23552	1.23552
   618	1.23675	1.23675
   619	1.23798	1.23798
   620	1.23921	1.23921
   621	1.24044	1.24044
   622	1.24167	1.24167
   623	1.2429	1.2429
   624	1.24412	1.24412
   625	1.24535	1.24535
   626	1.24658	1.24658
   627	1.24781	1.24781
   628	1.24904	1.24904
   629	1.25026	1.25026
   630	1.25149	1.25149
   631	1.25272	1.25272
   632	1.25395	1.25395
   633	1.25518	1.25518
   634	1.2564	1.2564
   635	1.25763	1.25763
   636	1.25886	1.25886
   637	1.26009	1.26009
   638	1.26132	1.26132
   639	1.26254	1.26254
   640	1.26377	1.26377
   641	1.265	1.265
   642	1.26623	1.26623
   643	1.26745	1.26745
   644	1.26868	1.26868
   645	1.26991	1.26991
   646	1.27114	1.27114
   647	1.27236	1.27236
   648	1.27359	1.27359
   649	1.27482	1.27482
   650	1.27605	1.27605
   651	1.27727	1.27727
   652	1.2785	1.2785
   653	1.27973	1.27973
   654	1.28095	1.28095
   655	1.28218	1.28218
   656	1.28341	1.28341
   657	1.28463	1.28463
   658	1.28586	1.28586
   659	1.28709	1.28709
   660	1.28831	1.28831
   661	1.28954	1.28954
   662	1.29077	1.29077
   663	1.292	1.292
   664	1.29322	1.29322
   665	1.29445	1.29445
   666	1.29567	1.29567
   667	1.2969	1.2969
   668	1.29813	1.29813
   669	1.29935	1.29935
   670	1.30058	1.30058
   671	1.30181	1.30181
   672	1.30304	1.30304
   673	1.30426	1.30426
   674	1.30549	1.30549
   675	1.30671	1.30671
   676	1.30794	1.30794
   677	1.30917	1.30917
   678	1.31039	1.31039
   679	1.31162	1.31162
   680	1.31285	1.31285
   681	1.31407	1.31407
   682	1.3153	1.3153
   683	1.31652	1.31652
   684	1.31775	1.31775
   685	1.31898	1.31898
   686	1.3202	1.3202
   687	1.32143	1.32143
   688	1.32266	1.32266
   689	1.32388	1.32388
   690	1.32511	1.32511
   691	1.32633	1.32633
   692	1.32756	1.32756
   693	1.32879	1.32879
   694	1.33002	1.33001
   695	1.33124	1.33124
   696	1.33247	1.33247
   697	1.33369	1.33369
   698	1.33492	1.33492
   699	1.33615	1.33615
   700	1.33737	1.33737
   701	1.3386	1.3386
   702	1.33982	1.33982
   703	1.34105	1.34105
   704	1.34228	1.34228
   705	1.3435	1.3435
   706	1.34473	1.34473
   707	1.34596	1.34596
   708	1.34718	1.34718
   709	1.34841	1.34841
   710	1.34964	1.34964
   711	1.35086	1.35086
   712	1.35209	1.35209
   713	1.35332	1.35332
   714	1.35454	1.35454
   715	1.35577	1.35577
   716	1.357	1.357
   717	1.35822	1.35822
   718	1.35945	1.35945
   719	1.36068	1.36068
   720	1.3619	1.3619
   721	1.36313	1.36313
   722	1.36436	1.36436
   723	1.36558	1.36558
   724	1.36681	1.36681
   725	1.36804	1.36804
   726	1.36927	1.36927
   727	1.37049	1.37049
   728	1.37172	1.37172
   729	1.37295	1.37295
   730	1.37418	1.37418
   731	1.37541	1.37541
   732	1.37663	1.37663
   733	1.37786	1.37786
   734	1.37909	1.37909
   735	1.38032	1.38032
   736	1.38155	1.38155
   737	1.38278	1.38278
   738	1.38401	1.38401
   739	1.38523	1.38523
   740	1.38646	1.38646
   741	1.38769	1.38769
   742	1.38892	1.38892
   743	1.39015	1.39015
   744	1.39138	1.39138
   745	1.39261	1.39261
   746	1.39384	1.39384
   747	1.39507	1.39507
   748	1.3963	1.3963
   749	1.39753	1.39753
   750	1.39877	1.39877
   751	1.4	1.4
   752	1.40123	1.40123
   753	1.40246	1.40246
   754	1.40369	1.40369
   755	1.40493	1.40493
   756	1.40616	1.40616
   757	1.40739	1.40739
   758	1.40863	1.40863
   759	1.40986	1.40986
   760	1.4111	1.4111
   761	1.41233	1.41233
   762	1.41357	1.41357
   763	1.4148	1.4148
   764	1.41604	1.41604
   765	1.41727	1.41727
   766	1.41851	1.41851
   767	1.41975	1.41975
   768	1.42099	1.42099
   769	1.42223	1.42223
   770	1.42346	1.42346
   771	1.4247	1.4247
   772	1.42595	1.42595
   773	1.42719	1.42719
   774	1.42843	1.42843
   775	1.42967	1.42967
   776	1.43091	1.43091
   777	1.43216	1.43216
   778	1.4334	1.4334
   779	1.43465	1.43465
   780	1.43589	1.4359
   781	1.43714	1.43714
   782	1.43839	1.43839
   783	1.43964	1.43964
   784	1.44089	1.44089
   785	1.44214	1.44214
   786	1.4434	1.4434
   787	1.44465	1.44465
   788	1.44591	1.44591
   789	1.44716	1.44716
   790	1.44842	1.44842
   791	1.44968	1.44968
   792	1.45094	1.45094
   793	1.45221	1.45221
   794	1.45347	1.45347
   795	1.45474	1.45474
   796	1.45601	1.45601
   797	1.45728	1.45728
   798	1.45855	1.45855
   799	1.45982	1.45982
   800	1.4611	1.4611
   801	1.46238	1.46238
   802	1.46366	1.46366
   803	1.46495	1.46495
   804	1.46624	1.46624
   805	1.46753	1.46753
   806	1.46882	1.46882
   807	1.47012	1.47012
   808	1.47142	1.47142
   809	1.47272	1.47272
   810	1.47403	1.47403
   811	1.47535	1.47535
   812	1.47666	1.47666
   813	1.47799	1.47799
   814	1.47931	1.47931
   815	1.48064	1.48064
   816	1.48198	1.48198
   817	1.48332	1.48332
   818	1.48467	1.48467
   819	1.48602	1.48602
   820	1.48738	1.48738
   821	1.48875	1.48875
   822	1.49012	1.49012
   823	1.49151	1.49151
   824	1.4929	1.4929
   825	1.4943	1.4943
   826	1.4957	1.4957
   827	1.49712	1.49712
   828	1.49855	1.49855
   829	1.49998	1.49998
   830	1.50143	1.50143
   831	1.50289	1.50289
   832	1.50436	1.50436
   833	1.50585	1.50584
   834	1.50734	1.50734
   835	1.50885	1.50885
   836	1.51038	1.51038
   837	1.51192	1.51192
   838	1.51348	1.51348
   839	1.51505	1.51505
   840	1.51665	1.51665
   841	1.51826	1.51826
   842	1.51989	1.51989
   843	1.52154	1.52154
   844	1.52322	1.52322
   845	1.52492	1.52492
   846	1.52664	1.52664
   847	1.52839	1.52839
   848	1.53017	1.53017
   849	1.53197	1.53197
   850	1.53381	1.53381
   851	1.53567	1.53567
   852	1.53757	1.53757
   853	1.53951	1.53951
   854	1.54149	1.54149
   855	1.5435	1.5435
   856	1.54556	1.54556
   857	1.54766	1.54766
   858	1.54981	1.54981
   859	1.55201	1.55201
   860	1.55427	1.55427
   861	1.55658	1.55658
   862	1.55895	1.55895
   863	1.56139	1.56139
   864	1.5639	1.5639
   865	1.56649	1.56649
   866	1.56915	1.56915
   867	1.57191	1.57191
   868	1.57475	1.57475
   869	1.5777	1.5777
   870	1.58076	1.58076
   871	1.58394	1.58394
   872	1.58725	1.58725
   873	1.59071	1.59071
   874	1.59433	1.59433
   875	1.59812	1.59812
   876	1.6021	1.6021
   877	1.60631	1.60631
   878	1.61075	1.61075
   879	1.61548	1.61548
   880	1.62051	1.62051
   881	1.6259	1.6259
   882	1.63169	1.63169
   883	1.63797	1.63797
   884	1.6448	1.6448
   885	1.65229	1.65229
   886	1.66058	1.66058
   887	1.66983	1.66983
   888	1.68028	1.68028
   889	1.69223	1.69223
   890	1.70612	1.70612
   891	1.72257	1.72257
   892	1.74249	1.74249
   893	1.76731	1.76731
   894	1.79933	1.79933
   895	1.84256	1.84256
   896	1.9045	1.9045
   897	0	0
   898	0	0
   899	0	0
   900	0	0
   901	0	0
   902	0	0
   903	0	0
   904	0	0
   905	0	0
   906	0	0
   907	0	0
   908	0	0
   909	0	0
   910	0	0
   911	0	0
   912	0	0
   913	0	0
   914	0	0
   915	0	0
   916	0	0
   917	0	0
   918	0	0
   919	0	0
   920	0	0
   921	0	0
   922	0	0
   923	0	0
   924	0	0
   925	0	0
   926	0	0
   927	0	0
   928	0	0
   929	0	0
   930	0	0
   931	0	0
   932	0	0
   933	0	0
   934	0	0
   935	0	0
   936	0	0
   937	0	0
   938	0	0
   939	0	0
   940	0	0
   941	0	0
   942	0	0
   943	0	0
   944	0	0
   945	0	0
   946	0	0
   947	0	0
   948	0	0
   949	0	0
   950	0	0
   951	0	0
   952	0	0
   953	0	0
   954	0	0
   955	0	0
   956	0	0
   957	0	0
   958	0	0
   959	0	0
   960	0	0
   961	0	0
   962	0	0
   963	0	0
   964	0	0
   965	0	0
   966	0	0
   967	0	0
   968	0	0
   969	0	0
   970	0	0
   971	0	0
   972	0	0
   973	0	0
   974	0	0
   975	0	0
   976	0	0
   977	0	0
   978	0	0
   979	0	0
   980	0	0
   981	0	0
   982	0	0
   983	0	0
   984	0	0
   985	0	0
   986	0	0
   987	0	0
   988	0	0
   989	0	0
   990	0	0
   991	0	0
   992	0	0
   993	0	0
   994	0	0
   995	0	0
   996	0	0
   997	0	0
   998	0	0
   999	0	0
  1000	0	0
  1001	0	0

Total elapsed time: 243.386 seconds.

