LTspice 24.0.9 for Windows
Circuit: * C:\Users\TVavrinec\Documents\skola\NAO\lab-1\sim\Draft2N.asc
Start Time: Tue Feb 27 20:03:06 2024
solver = Normal
Maximum thread count: 16

Warning: Pd = 0 is less than W.
Warning: Ps = 0 is less than W.

.step n=1

.step n=2

.step n=3

.step n=4

.step n=5

.step n=6

.step n=7

.step n=8
tnom = 27
temp = 27
method = modified trap
.step n=9

Measurement: uth
  step	v(vg)	at
     1	0.3822	  0.3822
     2	0.417049	0.417049
     3	0.418458	0.418458
     4	0.38664	  0.38664
     5	0.386941	0.386941
     6	0.368009	0.368009
     7	0.357377	0.357377
     8	0.353754	0.353754
     9	0.35372	  0.35372

Total elapsed time: 0.492 seconds.

