LTspice 24.0.9 for Windows
Circuit: * C:\Users\TVavrinec\Documents\skola\NAO\lab-1\sim\Draft4N.asc
Start Time: Wed Feb 28 13:19:27 2024
solver = Normal
Maximum thread count: 16



Warning: Pd = 0 is less than W.
Warning: Ps = 0 is less than W.
.step lset=1e-07



.step lset=1.2e-07



.step lset=1.4e-07



.step lset=1.6e-07



.step lset=1.8e-07



.step lset=2e-07



.step lset=2.2e-07



.step lset=2.4e-07



.step lset=2.6e-07



.step lset=2.8e-07



.step lset=3e-07



.step lset=3.2e-07



.step lset=3.4e-07



.step lset=3.6e-07



.step lset=3.8e-07



.step lset=4e-07



.step lset=4.2e-07



.step lset=4.4e-07



.step lset=4.6e-07



.step lset=4.8e-07



.step lset=5e-07



.step lset=5.2e-07



.step lset=5.4e-07



.step lset=5.6e-07



.step lset=5.8e-07



.step lset=6e-07



.step lset=6.2e-07



.step lset=6.4e-07



.step lset=6.6e-07



.step lset=6.8e-07



.step lset=7e-07



.step lset=7.2e-07



.step lset=7.4e-07



.step lset=7.6e-07



.step lset=7.8e-07



.step lset=8e-07



.step lset=8.20000000000001e-07



.step lset=8.40000000000001e-07



.step lset=8.60000000000001e-07



.step lset=8.80000000000001e-07



.step lset=9.00000000000001e-07



.step lset=9.20000000000001e-07



.step lset=9.40000000000001e-07



.step lset=9.60000000000001e-07



.step lset=9.80000000000001e-07



.step lset=1e-06



.step lset=1.02e-06



.step lset=1.04e-06



.step lset=1.06e-06



.step lset=1.08e-06



.step lset=1.1e-06



.step lset=1.12e-06



.step lset=1.14e-06



.step lset=1.16e-06



.step lset=1.18e-06



.step lset=1.2e-06



.step lset=1.22e-06



.step lset=1.24e-06



.step lset=1.26e-06



.step lset=1.28e-06



.step lset=1.3e-06



.step lset=1.32e-06



.step lset=1.34e-06



.step lset=1.36e-06



.step lset=1.38e-06



.step lset=1.4e-06



.step lset=1.42e-06



.step lset=1.44e-06



.step lset=1.46e-06



.step lset=1.48e-06



.step lset=1.5e-06



.step lset=1.52e-06



.step lset=1.54e-06



.step lset=1.56e-06



.step lset=1.58e-06



.step lset=1.6e-06



.step lset=1.62e-06



.step lset=1.64e-06



.step lset=1.66e-06



.step lset=1.68e-06



.step lset=1.7e-06



.step lset=1.72e-06



.step lset=1.74e-06



.step lset=1.76e-06



.step lset=1.78e-06



.step lset=1.8e-06



.step lset=1.82e-06



.step lset=1.84e-06



.step lset=1.86e-06



.step lset=1.88e-06



.step lset=1.9e-06



.step lset=1.92e-06



.step lset=1.94e-06



.step lset=1.96e-06



.step lset=1.98e-06



.step lset=2e-06



.step lset=2.02e-06



.step lset=2.04e-06



.step lset=2.06e-06



.step lset=2.08e-06



.step lset=2.1e-06



.step lset=2.12e-06



.step lset=2.14e-06



.step lset=2.16e-06



.step lset=2.18e-06



.step lset=2.2e-06



.step lset=2.22e-06



.step lset=2.24e-06



.step lset=2.26e-06



.step lset=2.28e-06



.step lset=2.3e-06



.step lset=2.32e-06



.step lset=2.34e-06



.step lset=2.36e-06



.step lset=2.38e-06



.step lset=2.4e-06



.step lset=2.42e-06



.step lset=2.44e-06



.step lset=2.46e-06



.step lset=2.48e-06



.step lset=2.5e-06



.step lset=2.52e-06



.step lset=2.54e-06



.step lset=2.56e-06



.step lset=2.58e-06



.step lset=2.6e-06



.step lset=2.61999999999999e-06



.step lset=2.63999999999999e-06



.step lset=2.65999999999999e-06



.step lset=2.67999999999999e-06



.step lset=2.69999999999999e-06



.step lset=2.71999999999999e-06



.step lset=2.73999999999999e-06



.step lset=2.75999999999999e-06



.step lset=2.77999999999999e-06



.step lset=2.79999999999999e-06



.step lset=2.81999999999999e-06



.step lset=2.83999999999999e-06



.step lset=2.85999999999999e-06



.step lset=2.87999999999999e-06



.step lset=2.89999999999999e-06



.step lset=2.91999999999999e-06



.step lset=2.93999999999999e-06



.step lset=2.95999999999999e-06



.step lset=2.97999999999999e-06



.step lset=2.99999999999999e-06



.step lset=3.01999999999999e-06



.step lset=3.03999999999999e-06



.step lset=3.05999999999999e-06



.step lset=3.07999999999999e-06



.step lset=3.09999999999999e-06



.step lset=3.11999999999999e-06



.step lset=3.13999999999999e-06



.step lset=3.15999999999999e-06



.step lset=3.17999999999999e-06



.step lset=3.19999999999999e-06



.step lset=3.21999999999999e-06



.step lset=3.23999999999999e-06



.step lset=3.25999999999999e-06



.step lset=3.27999999999999e-06



.step lset=3.29999999999999e-06



.step lset=3.31999999999999e-06



.step lset=3.33999999999999e-06



.step lset=3.35999999999999e-06



.step lset=3.37999999999999e-06



.step lset=3.39999999999999e-06



.step lset=3.41999999999999e-06



.step lset=3.43999999999999e-06



.step lset=3.45999999999999e-06



.step lset=3.47999999999999e-06



.step lset=3.49999999999999e-06



.step lset=3.51999999999999e-06



.step lset=3.53999999999999e-06



.step lset=3.55999999999999e-06



.step lset=3.57999999999999e-06



.step lset=3.59999999999999e-06



.step lset=3.61999999999999e-06



.step lset=3.63999999999999e-06



.step lset=3.65999999999998e-06



.step lset=3.67999999999998e-06



.step lset=3.69999999999998e-06



.step lset=3.71999999999998e-06



.step lset=3.73999999999998e-06



.step lset=3.75999999999998e-06



.step lset=3.77999999999998e-06



.step lset=3.79999999999998e-06



.step lset=3.81999999999998e-06



.step lset=3.83999999999998e-06



.step lset=3.85999999999998e-06



.step lset=3.87999999999998e-06



.step lset=3.89999999999998e-06



.step lset=3.91999999999998e-06



.step lset=3.93999999999998e-06



.step lset=3.95999999999998e-06



.step lset=3.97999999999998e-06



.step lset=3.99999999999998e-06



.step lset=4.01999999999998e-06



.step lset=4.03999999999998e-06



.step lset=4.05999999999998e-06



.step lset=4.07999999999998e-06



.step lset=4.09999999999998e-06



.step lset=4.11999999999998e-06



.step lset=4.13999999999998e-06



.step lset=4.15999999999998e-06



.step lset=4.17999999999998e-06



.step lset=4.19999999999998e-06



.step lset=4.21999999999998e-06



.step lset=4.23999999999998e-06



.step lset=4.25999999999998e-06



.step lset=4.27999999999998e-06



.step lset=4.29999999999998e-06



.step lset=4.31999999999998e-06



.step lset=4.33999999999998e-06



.step lset=4.35999999999998e-06



.step lset=4.37999999999998e-06



.step lset=4.39999999999998e-06



.step lset=4.41999999999998e-06



.step lset=4.43999999999998e-06



.step lset=4.45999999999998e-06



.step lset=4.47999999999998e-06



.step lset=4.49999999999998e-06



.step lset=4.51999999999998e-06



.step lset=4.53999999999998e-06



.step lset=4.55999999999998e-06



.step lset=4.57999999999998e-06



.step lset=4.59999999999998e-06



.step lset=4.61999999999998e-06



.step lset=4.63999999999998e-06



.step lset=4.65999999999998e-06



.step lset=4.67999999999998e-06



.step lset=4.69999999999998e-06



.step lset=4.71999999999998e-06



.step lset=4.73999999999997e-06



.step lset=4.75999999999997e-06



.step lset=4.77999999999997e-06



.step lset=4.79999999999997e-06



.step lset=4.81999999999997e-06



.step lset=4.83999999999997e-06



.step lset=4.85999999999997e-06



.step lset=4.87999999999997e-06



.step lset=4.89999999999997e-06



.step lset=4.91999999999997e-06



.step lset=4.93999999999997e-06



.step lset=4.95999999999997e-06



.step lset=4.97999999999997e-06



.step lset=4.99999999999997e-06



.step lset=5.01999999999997e-06



.step lset=5.03999999999997e-06



.step lset=5.05999999999997e-06



.step lset=5.07999999999997e-06



.step lset=5.09999999999997e-06



.step lset=5.11999999999997e-06



.step lset=5.13999999999997e-06



.step lset=5.15999999999997e-06



.step lset=5.17999999999997e-06



.step lset=5.19999999999997e-06



.step lset=5.21999999999997e-06



.step lset=5.23999999999997e-06



.step lset=5.25999999999997e-06



.step lset=5.27999999999997e-06



.step lset=5.29999999999997e-06



.step lset=5.31999999999997e-06



.step lset=5.33999999999997e-06



.step lset=5.35999999999997e-06



.step lset=5.37999999999997e-06



.step lset=5.39999999999997e-06



.step lset=5.41999999999997e-06



.step lset=5.43999999999997e-06



.step lset=5.45999999999997e-06



.step lset=5.47999999999997e-06



.step lset=5.49999999999997e-06



.step lset=5.51999999999997e-06



.step lset=5.53999999999997e-06



.step lset=5.55999999999997e-06



.step lset=5.57999999999997e-06



.step lset=5.59999999999997e-06



.step lset=5.61999999999997e-06



.step lset=5.63999999999997e-06



.step lset=5.65999999999997e-06



.step lset=5.67999999999997e-06



.step lset=5.69999999999997e-06



.step lset=5.71999999999997e-06



.step lset=5.73999999999997e-06



.step lset=5.75999999999997e-06



.step lset=5.77999999999996e-06



.step lset=5.79999999999996e-06



.step lset=5.81999999999996e-06



.step lset=5.83999999999996e-06



.step lset=5.85999999999996e-06



.step lset=5.87999999999996e-06



.step lset=5.89999999999996e-06



.step lset=5.91999999999996e-06



.step lset=5.93999999999996e-06



.step lset=5.95999999999996e-06



.step lset=5.97999999999996e-06



.step lset=5.99999999999996e-06



.step lset=6.01999999999996e-06



.step lset=6.03999999999996e-06



.step lset=6.05999999999996e-06



.step lset=6.07999999999996e-06



.step lset=6.09999999999996e-06



.step lset=6.11999999999996e-06



.step lset=6.13999999999996e-06



.step lset=6.15999999999996e-06



.step lset=6.17999999999996e-06



.step lset=6.19999999999996e-06



.step lset=6.21999999999996e-06



.step lset=6.23999999999996e-06



.step lset=6.25999999999996e-06



.step lset=6.27999999999996e-06



.step lset=6.29999999999996e-06



.step lset=6.31999999999996e-06



.step lset=6.33999999999996e-06



.step lset=6.35999999999996e-06



.step lset=6.37999999999996e-06



.step lset=6.39999999999996e-06



.step lset=6.41999999999996e-06



.step lset=6.43999999999996e-06



.step lset=6.45999999999996e-06



.step lset=6.47999999999996e-06



.step lset=6.49999999999996e-06



.step lset=6.51999999999996e-06



.step lset=6.53999999999996e-06



.step lset=6.55999999999996e-06



.step lset=6.57999999999996e-06



.step lset=6.59999999999996e-06



.step lset=6.61999999999996e-06



.step lset=6.63999999999996e-06



.step lset=6.65999999999996e-06



.step lset=6.67999999999996e-06



.step lset=6.69999999999996e-06



.step lset=6.71999999999996e-06



.step lset=6.73999999999996e-06



.step lset=6.75999999999996e-06



.step lset=6.77999999999996e-06



.step lset=6.79999999999996e-06



.step lset=6.81999999999996e-06



.step lset=6.83999999999995e-06



.step lset=6.85999999999995e-06



.step lset=6.87999999999995e-06



.step lset=6.89999999999995e-06



.step lset=6.91999999999995e-06



.step lset=6.93999999999995e-06



.step lset=6.95999999999995e-06



.step lset=6.97999999999995e-06



.step lset=6.99999999999995e-06



.step lset=7.01999999999995e-06



.step lset=7.03999999999995e-06



.step lset=7.05999999999995e-06



.step lset=7.07999999999995e-06



.step lset=7.09999999999995e-06



.step lset=7.11999999999995e-06



.step lset=7.13999999999995e-06



.step lset=7.15999999999995e-06



.step lset=7.17999999999995e-06



.step lset=7.19999999999995e-06



.step lset=7.21999999999995e-06



.step lset=7.23999999999995e-06



.step lset=7.25999999999995e-06



.step lset=7.27999999999995e-06



.step lset=7.29999999999995e-06



.step lset=7.31999999999995e-06



.step lset=7.33999999999995e-06



.step lset=7.35999999999995e-06



.step lset=7.37999999999995e-06



.step lset=7.39999999999995e-06



.step lset=7.41999999999995e-06



.step lset=7.43999999999995e-06



.step lset=7.45999999999995e-06



.step lset=7.47999999999995e-06



.step lset=7.49999999999995e-06



.step lset=7.51999999999995e-06



.step lset=7.53999999999995e-06



.step lset=7.55999999999995e-06



.step lset=7.57999999999995e-06



.step lset=7.59999999999995e-06



.step lset=7.61999999999995e-06



.step lset=7.63999999999995e-06



.step lset=7.65999999999995e-06



.step lset=7.67999999999995e-06



.step lset=7.69999999999995e-06



.step lset=7.71999999999995e-06



.step lset=7.73999999999995e-06



.step lset=7.75999999999995e-06



.step lset=7.77999999999995e-06



.step lset=7.79999999999995e-06



.step lset=7.81999999999995e-06



.step lset=7.83999999999995e-06



.step lset=7.85999999999995e-06



.step lset=7.87999999999994e-06



.step lset=7.89999999999994e-06



.step lset=7.91999999999994e-06



.step lset=7.93999999999994e-06



.step lset=7.95999999999994e-06



.step lset=7.97999999999994e-06



.step lset=7.99999999999994e-06



.step lset=8.01999999999994e-06



.step lset=8.03999999999994e-06



.step lset=8.05999999999994e-06



.step lset=8.07999999999994e-06



.step lset=8.09999999999994e-06



.step lset=8.11999999999994e-06



.step lset=8.13999999999994e-06



.step lset=8.15999999999994e-06



.step lset=8.17999999999994e-06



.step lset=8.19999999999994e-06



.step lset=8.21999999999994e-06



.step lset=8.23999999999994e-06



.step lset=8.25999999999994e-06



.step lset=8.27999999999994e-06



.step lset=8.29999999999994e-06



.step lset=8.31999999999994e-06



.step lset=8.33999999999994e-06



.step lset=8.35999999999994e-06



.step lset=8.37999999999994e-06



.step lset=8.39999999999994e-06



.step lset=8.41999999999994e-06



.step lset=8.43999999999994e-06



.step lset=8.45999999999994e-06



.step lset=8.47999999999994e-06



.step lset=8.49999999999994e-06



.step lset=8.51999999999994e-06



.step lset=8.53999999999994e-06



.step lset=8.55999999999994e-06



.step lset=8.57999999999994e-06



.step lset=8.59999999999994e-06



.step lset=8.61999999999994e-06



.step lset=8.63999999999994e-06



.step lset=8.65999999999994e-06



.step lset=8.67999999999994e-06



.step lset=8.69999999999994e-06



.step lset=8.71999999999994e-06



.step lset=8.73999999999994e-06



.step lset=8.75999999999994e-06



.step lset=8.77999999999994e-06



.step lset=8.79999999999994e-06



.step lset=8.81999999999994e-06



.step lset=8.83999999999994e-06



.step lset=8.85999999999994e-06



.step lset=8.87999999999994e-06



.step lset=8.89999999999994e-06



.step lset=8.91999999999993e-06



.step lset=8.93999999999993e-06



.step lset=8.95999999999993e-06



.step lset=8.97999999999993e-06



.step lset=8.99999999999993e-06



.step lset=9.01999999999993e-06



.step lset=9.03999999999993e-06



.step lset=9.05999999999993e-06



.step lset=9.07999999999993e-06



.step lset=9.09999999999993e-06



.step lset=9.11999999999993e-06



.step lset=9.13999999999993e-06



.step lset=9.15999999999993e-06



.step lset=9.17999999999993e-06



.step lset=9.19999999999993e-06



.step lset=9.21999999999993e-06



.step lset=9.23999999999993e-06



.step lset=9.25999999999993e-06



.step lset=9.27999999999993e-06



.step lset=9.29999999999993e-06



.step lset=9.31999999999993e-06



.step lset=9.33999999999993e-06



.step lset=9.35999999999993e-06



.step lset=9.37999999999993e-06



.step lset=9.39999999999993e-06



.step lset=9.41999999999993e-06



.step lset=9.43999999999993e-06



.step lset=9.45999999999993e-06



.step lset=9.47999999999993e-06



.step lset=9.49999999999993e-06



.step lset=9.51999999999993e-06



.step lset=9.53999999999993e-06



.step lset=9.55999999999993e-06



.step lset=9.57999999999993e-06



.step lset=9.59999999999993e-06



.step lset=9.61999999999993e-06



.step lset=9.63999999999993e-06



.step lset=9.65999999999993e-06



.step lset=9.67999999999993e-06



.step lset=9.69999999999993e-06



.step lset=9.71999999999993e-06



.step lset=9.73999999999993e-06



.step lset=9.75999999999993e-06



.step lset=9.77999999999993e-06



.step lset=9.79999999999993e-06



.step lset=9.81999999999993e-06



.step lset=9.83999999999993e-06



.step lset=9.85999999999993e-06



.step lset=9.87999999999993e-06



.step lset=9.89999999999993e-06



.step lset=9.91999999999993e-06



.step lset=9.93999999999993e-06



.step lset=9.95999999999992e-06



.step lset=9.97999999999992e-06
tnom = 27
temp = 27
method = modified trap
.step lset=9.99999999999992e-06


Measurement: id1
  step	id(m1)	at
     1	2.10767e-05	0.5
     2	1.45787e-05	0.5
     3	1.10207e-05	0.5
     4	8.89785e-06	0.5
     5	7.57438e-06	0.5
     6	6.73151e-06	0.5
     7	6.19329e-06	0.5
     8	5.85627e-06	0.5
     9	5.65657e-06	0.5
    10	5.55308e-06	0.5
    11	5.5184e-06	0.5
    12	5.53362e-06	0.5
    13	5.58538e-06	0.5
    14	5.66396e-06	0.5
    15	5.76221e-06	0.5
    16	5.87472e-06	0.5
    17	5.99742e-06	0.5
    18	6.12714e-06	0.5
    19	6.26145e-06	0.5
    20	6.39847e-06	0.5
    21	6.53672e-06	0.5
    22	6.67506e-06	0.5
    23	6.81258e-06	0.5
    24	6.94861e-06	0.5
    25	7.08259e-06	0.5
    26	7.21412e-06	0.5
    27	7.3429e-06	0.5
    28	7.46871e-06	0.5
    29	7.59138e-06	0.5
    30	7.71081e-06	0.5
    31	7.82694e-06	0.5
    32	7.93975e-06	0.5
    33	8.04922e-06	0.5
    34	8.1554e-06	0.5
    35	8.25831e-06	0.5
    36	8.35802e-06	0.5
    37	8.45458e-06	0.5
    38	8.54808e-06	0.5
    39	8.63859e-06	0.5
    40	8.7262e-06	0.5
    41	8.81099e-06	0.5
    42	8.89306e-06	0.5
    43	8.9725e-06	0.5
    44	9.04939e-06	0.5
    45	9.12383e-06	0.5
    46	9.1959e-06	0.5
    47	9.26569e-06	0.5
    48	9.33328e-06	0.5
    49	9.39877e-06	0.5
    50	9.46222e-06	0.5
    51	9.52373e-06	0.5
    52	9.58335e-06	0.5
    53	9.64117e-06	0.5
    54	9.69726e-06	0.5
    55	9.75168e-06	0.5
    56	9.8045e-06	0.5
    57	9.85578e-06	0.5
    58	9.90558e-06	0.5
    59	9.95396e-06	0.5
    60	1.0001e-05	0.5
    61	1.00467e-05	0.5
    62	1.00911e-05	0.5
    63	1.01343e-05	0.5
    64	1.01764e-05	0.5
    65	1.02173e-05	0.5
    66	1.02571e-05	0.5
    67	1.02959e-05	0.5
    68	1.03337e-05	0.5
    69	1.03705e-05	0.5
    70	1.04064e-05	0.5
    71	1.04414e-05	0.5
    72	1.04755e-05	0.5
    73	1.05088e-05	0.5
    74	1.05412e-05	0.5
    75	1.05729e-05	0.5
    76	1.06039e-05	0.5
    77	1.06341e-05	0.5
    78	1.06636e-05	0.5
    79	1.06924e-05	0.5
    80	1.07206e-05	0.5
    81	1.07481e-05	0.5
    82	1.07751e-05	0.5
    83	1.08014e-05	0.5
    84	1.08271e-05	0.5
    85	1.08524e-05	0.5
    86	1.0877e-05	0.5
    87	1.09012e-05	0.5
    88	1.09248e-05	0.5
    89	1.09479e-05	0.5
    90	1.09706e-05	0.5
    91	1.09928e-05	0.5
    92	1.10146e-05	0.5
    93	1.10359e-05	0.5
    94	1.10568e-05	0.5
    95	1.10773e-05	0.5
    96	1.10974e-05	0.5
    97	1.11171e-05	0.5
    98	1.11365e-05	0.5
    99	1.11554e-05	0.5
   100	1.11741e-05	0.5
   101	1.11923e-05	0.5
   102	1.12103e-05	0.5
   103	1.12279e-05	0.5
   104	1.12452e-05	0.5
   105	1.12622e-05	0.5
   106	1.12789e-05	0.5
   107	1.12953e-05	0.5
   108	1.13114e-05	0.5
   109	1.13272e-05	0.5
   110	1.13428e-05	0.5
   111	1.13581e-05	0.5
   112	1.13731e-05	0.5
   113	1.13879e-05	0.5
   114	1.14025e-05	0.5
   115	1.14168e-05	0.5
   116	1.14309e-05	0.5
   117	1.14447e-05	0.5
   118	1.14583e-05	0.5
   119	1.14718e-05	0.5
   120	1.1485e-05	0.5
   121	1.1498e-05	0.5
   122	1.15108e-05	0.5
   123	1.15234e-05	0.5
   124	1.15358e-05	0.5
   125	1.1548e-05	0.5
   126	1.156e-05	0.5
   127	1.15719e-05	0.5
   128	1.15836e-05	0.5
   129	1.15951e-05	0.5
   130	1.16064e-05	0.5
   131	1.16176e-05	0.5
   132	1.16287e-05	0.5
   133	1.16395e-05	0.5
   134	1.16502e-05	0.5
   135	1.16608e-05	0.5
   136	1.16712e-05	0.5
   137	1.16815e-05	0.5
   138	1.16916e-05	0.5
   139	1.17016e-05	0.5
   140	1.17115e-05	0.5
   141	1.17212e-05	0.5
   142	1.17308e-05	0.5
   143	1.17403e-05	0.5
   144	1.17496e-05	0.5
   145	1.17588e-05	0.5
   146	1.17679e-05	0.5
   147	1.17769e-05	0.5
   148	1.17858e-05	0.5
   149	1.17946e-05	0.5
   150	1.18032e-05	0.5
   151	1.18118e-05	0.5
   152	1.18202e-05	0.5
   153	1.18285e-05	0.5
   154	1.18368e-05	0.5
   155	1.18449e-05	0.5
   156	1.18529e-05	0.5
   157	1.18608e-05	0.5
   158	1.18687e-05	0.5
   159	1.18764e-05	0.5
   160	1.18841e-05	0.5
   161	1.18916e-05	0.5
   162	1.18991e-05	0.5
   163	1.19065e-05	0.5
   164	1.19138e-05	0.5
   165	1.1921e-05	0.5
   166	1.19282e-05	0.5
   167	1.19352e-05	0.5
   168	1.19422e-05	0.5
   169	1.19491e-05	0.5
   170	1.19559e-05	0.5
   171	1.19627e-05	0.5
   172	1.19694e-05	0.5
   173	1.1976e-05	0.5
   174	1.19825e-05	0.5
   175	1.1989e-05	0.5
   176	1.19953e-05	0.5
   177	1.20017e-05	0.5
   178	1.20079e-05	0.5
   179	1.20141e-05	0.5
   180	1.20202e-05	0.5
   181	1.20263e-05	0.5
   182	1.20323e-05	0.5
   183	1.20382e-05	0.5
   184	1.20441e-05	0.5
   185	1.20499e-05	0.5
   186	1.20557e-05	0.5
   187	1.20614e-05	0.5
   188	1.2067e-05	0.5
   189	1.20726e-05	0.5
   190	1.20781e-05	0.5
   191	1.20836e-05	0.5
   192	1.2089e-05	0.5
   193	1.20944e-05	0.5
   194	1.20997e-05	0.5
   195	1.2105e-05	0.5
   196	1.21102e-05	0.5
   197	1.21154e-05	0.5
   198	1.21205e-05	0.5
   199	1.21255e-05	0.5
   200	1.21306e-05	0.5
   201	1.21355e-05	0.5
   202	1.21405e-05	0.5
   203	1.21453e-05	0.5
   204	1.21502e-05	0.5
   205	1.2155e-05	0.5
   206	1.21597e-05	0.5
   207	1.21644e-05	0.5
   208	1.21691e-05	0.5
   209	1.21737e-05	0.5
   210	1.21783e-05	0.5
   211	1.21828e-05	0.5
   212	1.21873e-05	0.5
   213	1.21918e-05	0.5
   214	1.21962e-05	0.5
   215	1.22006e-05	0.5
   216	1.22049e-05	0.5
   217	1.22092e-05	0.5
   218	1.22135e-05	0.5
   219	1.22177e-05	0.5
   220	1.22219e-05	0.5
   221	1.22261e-05	0.5
   222	1.22302e-05	0.5
   223	1.22343e-05	0.5
   224	1.22384e-05	0.5
   225	1.22424e-05	0.5
   226	1.22464e-05	0.5
   227	1.22503e-05	0.5
   228	1.22543e-05	0.5
   229	1.22581e-05	0.5
   230	1.2262e-05	0.5
   231	1.22658e-05	0.5
   232	1.22696e-05	0.5
   233	1.22734e-05	0.5
   234	1.22771e-05	0.5
   235	1.22808e-05	0.5
   236	1.22845e-05	0.5
   237	1.22882e-05	0.5
   238	1.22918e-05	0.5
   239	1.22954e-05	0.5
   240	1.22989e-05	0.5
   241	1.23025e-05	0.5
   242	1.2306e-05	0.5
   243	1.23095e-05	0.5
   244	1.23129e-05	0.5
   245	1.23163e-05	0.5
   246	1.23197e-05	0.5
   247	1.23231e-05	0.5
   248	1.23265e-05	0.5
   249	1.23298e-05	0.5
   250	1.23331e-05	0.5
   251	1.23364e-05	0.5
   252	1.23396e-05	0.5
   253	1.23428e-05	0.5
   254	1.23461e-05	0.5
   255	1.23492e-05	0.5
   256	1.23524e-05	0.5
   257	1.23555e-05	0.5
   258	1.23586e-05	0.5
   259	1.23617e-05	0.5
   260	1.23648e-05	0.5
   261	1.23678e-05	0.5
   262	1.23709e-05	0.5
   263	1.23739e-05	0.5
   264	1.23768e-05	0.5
   265	1.23798e-05	0.5
   266	1.23827e-05	0.5
   267	1.23856e-05	0.5
   268	1.23885e-05	0.5
   269	1.23914e-05	0.5
   270	1.23943e-05	0.5
   271	1.23971e-05	0.5
   272	1.23999e-05	0.5
   273	1.24027e-05	0.5
   274	1.24055e-05	0.5
   275	1.24083e-05	0.5
   276	1.2411e-05	0.5
   277	1.24137e-05	0.5
   278	1.24164e-05	0.5
   279	1.24191e-05	0.5
   280	1.24218e-05	0.5
   281	1.24244e-05	0.5
   282	1.24271e-05	0.5
   283	1.24297e-05	0.5
   284	1.24323e-05	0.5
   285	1.24349e-05	0.5
   286	1.24374e-05	0.5
   287	1.244e-05	0.5
   288	1.24425e-05	0.5
   289	1.2445e-05	0.5
   290	1.24475e-05	0.5
   291	1.245e-05	0.5
   292	1.24525e-05	0.5
   293	1.24549e-05	0.5
   294	1.24574e-05	0.5
   295	1.24598e-05	0.5
   296	1.24622e-05	0.5
   297	1.24646e-05	0.5
   298	1.2467e-05	0.5
   299	1.24693e-05	0.5
   300	1.24717e-05	0.5
   301	1.2474e-05	0.5
   302	1.24763e-05	0.5
   303	1.24786e-05	0.5
   304	1.24809e-05	0.5
   305	1.24832e-05	0.5
   306	1.24854e-05	0.5
   307	1.24877e-05	0.5
   308	1.24899e-05	0.5
   309	1.24921e-05	0.5
   310	1.24943e-05	0.5
   311	1.24965e-05	0.5
   312	1.24987e-05	0.5
   313	1.25009e-05	0.5
   314	1.2503e-05	0.5
   315	1.25052e-05	0.5
   316	1.25073e-05	0.5
   317	1.25094e-05	0.5
   318	1.25115e-05	0.5
   319	1.25136e-05	0.5
   320	1.25157e-05	0.5
   321	1.25177e-05	0.5
   322	1.25198e-05	0.5
   323	1.25218e-05	0.5
   324	1.25239e-05	0.5
   325	1.25259e-05	0.5
   326	1.25279e-05	0.5
   327	1.25299e-05	0.5
   328	1.25319e-05	0.5
   329	1.25338e-05	0.5
   330	1.25358e-05	0.5
   331	1.25378e-05	0.5
   332	1.25397e-05	0.5
   333	1.25416e-05	0.5
   334	1.25435e-05	0.5
   335	1.25454e-05	0.5
   336	1.25473e-05	0.5
   337	1.25492e-05	0.5
   338	1.25511e-05	0.5
   339	1.2553e-05	0.5
   340	1.25548e-05	0.5
   341	1.25567e-05	0.5
   342	1.25585e-05	0.5
   343	1.25603e-05	0.5
   344	1.25621e-05	0.5
   345	1.25639e-05	0.5
   346	1.25657e-05	0.5
   347	1.25675e-05	0.5
   348	1.25693e-05	0.5
   349	1.25711e-05	0.5
   350	1.25728e-05	0.5
   351	1.25746e-05	0.5
   352	1.25763e-05	0.5
   353	1.2578e-05	0.5
   354	1.25797e-05	0.5
   355	1.25815e-05	0.5
   356	1.25832e-05	0.5
   357	1.25848e-05	0.5
   358	1.25865e-05	0.5
   359	1.25882e-05	0.5
   360	1.25899e-05	0.5
   361	1.25915e-05	0.5
   362	1.25932e-05	0.5
   363	1.25948e-05	0.5
   364	1.25964e-05	0.5
   365	1.25981e-05	0.5
   366	1.25997e-05	0.5
   367	1.26013e-05	0.5
   368	1.26029e-05	0.5
   369	1.26045e-05	0.5
   370	1.26061e-05	0.5
   371	1.26076e-05	0.5
   372	1.26092e-05	0.5
   373	1.26108e-05	0.5
   374	1.26123e-05	0.5
   375	1.26138e-05	0.5
   376	1.26154e-05	0.5
   377	1.26169e-05	0.5
   378	1.26184e-05	0.5
   379	1.26199e-05	0.5
   380	1.26214e-05	0.5
   381	1.26229e-05	0.5
   382	1.26244e-05	0.5
   383	1.26259e-05	0.5
   384	1.26274e-05	0.5
   385	1.26288e-05	0.5
   386	1.26303e-05	0.5
   387	1.26318e-05	0.5
   388	1.26332e-05	0.5
   389	1.26346e-05	0.5
   390	1.26361e-05	0.5
   391	1.26375e-05	0.5
   392	1.26389e-05	0.5
   393	1.26403e-05	0.5
   394	1.26417e-05	0.5
   395	1.26431e-05	0.5
   396	1.26445e-05	0.5
   397	1.26459e-05	0.5
   398	1.26473e-05	0.5
   399	1.26487e-05	0.5
   400	1.265e-05	0.5
   401	1.26514e-05	0.5
   402	1.26527e-05	0.5
   403	1.26541e-05	0.5
   404	1.26554e-05	0.5
   405	1.26568e-05	0.5
   406	1.26581e-05	0.5
   407	1.26594e-05	0.5
   408	1.26607e-05	0.5
   409	1.2662e-05	0.5
   410	1.26633e-05	0.5
   411	1.26646e-05	0.5
   412	1.26659e-05	0.5
   413	1.26672e-05	0.5
   414	1.26685e-05	0.5
   415	1.26698e-05	0.5
   416	1.2671e-05	0.5
   417	1.26723e-05	0.5
   418	1.26735e-05	0.5
   419	1.26748e-05	0.5
   420	1.2676e-05	0.5
   421	1.26773e-05	0.5
   422	1.26785e-05	0.5
   423	1.26797e-05	0.5
   424	1.2681e-05	0.5
   425	1.26822e-05	0.5
   426	1.26834e-05	0.5
   427	1.26846e-05	0.5
   428	1.26858e-05	0.5
   429	1.2687e-05	0.5
   430	1.26882e-05	0.5
   431	1.26894e-05	0.5
   432	1.26906e-05	0.5
   433	1.26917e-05	0.5
   434	1.26929e-05	0.5
   435	1.26941e-05	0.5
   436	1.26952e-05	0.5
   437	1.26964e-05	0.5
   438	1.26975e-05	0.5
   439	1.26987e-05	0.5
   440	1.26998e-05	0.5
   441	1.2701e-05	0.5
   442	1.27021e-05	0.5
   443	1.27032e-05	0.5
   444	1.27043e-05	0.5
   445	1.27054e-05	0.5
   446	1.27066e-05	0.5
   447	1.27077e-05	0.5
   448	1.27088e-05	0.5
   449	1.27099e-05	0.5
   450	1.27109e-05	0.5
   451	1.2712e-05	0.5
   452	1.27131e-05	0.5
   453	1.27142e-05	0.5
   454	1.27153e-05	0.5
   455	1.27163e-05	0.5
   456	1.27174e-05	0.5
   457	1.27185e-05	0.5
   458	1.27195e-05	0.5
   459	1.27206e-05	0.5
   460	1.27216e-05	0.5
   461	1.27227e-05	0.5
   462	1.27237e-05	0.5
   463	1.27247e-05	0.5
   464	1.27258e-05	0.5
   465	1.27268e-05	0.5
   466	1.27278e-05	0.5
   467	1.27288e-05	0.5
   468	1.27299e-05	0.5
   469	1.27309e-05	0.5
   470	1.27319e-05	0.5
   471	1.27329e-05	0.5
   472	1.27339e-05	0.5
   473	1.27349e-05	0.5
   474	1.27358e-05	0.5
   475	1.27368e-05	0.5
   476	1.27378e-05	0.5
   477	1.27388e-05	0.5
   478	1.27398e-05	0.5
   479	1.27407e-05	0.5
   480	1.27417e-05	0.5
   481	1.27427e-05	0.5
   482	1.27436e-05	0.5
   483	1.27446e-05	0.5
   484	1.27455e-05	0.5
   485	1.27465e-05	0.5
   486	1.27474e-05	0.5
   487	1.27484e-05	0.5
   488	1.27493e-05	0.5
   489	1.27502e-05	0.5
   490	1.27512e-05	0.5
   491	1.27521e-05	0.5
   492	1.2753e-05	0.5
   493	1.27539e-05	0.5
   494	1.27548e-05	0.5
   495	1.27557e-05	0.5
   496	1.27567e-05	0.5

Measurement: id2
  step	id(m1)	at
     1	3.54484e-05	1.3
     2	2.28401e-05	1.3
     3	1.62816e-05	1.3
     4	1.25138e-05	1.3
     5	1.02184e-05	1.3
     6	8.76781e-06	1.3
     7	7.83206e-06	1.3
     8	7.22537e-06	1.3
     9	6.83732e-06	1.3
    10	6.59918e-06	1.3
    11	6.46642e-06	1.3
    12	6.40915e-06	1.3
    13	6.40666e-06	1.3
    14	6.44426e-06	1.3
    15	6.51125e-06	1.3
    16	6.59972e-06	1.3
    17	6.70374e-06	1.3
    18	6.81882e-06	1.3
    19	6.94151e-06	1.3
    20	7.06917e-06	1.3
    21	7.19975e-06	1.3
    22	7.33168e-06	1.3
    23	7.46373e-06	1.3
    24	7.59496e-06	1.3
    25	7.72465e-06	1.3
    26	7.85225e-06	1.3
    27	7.97734e-06	1.3
    28	8.09962e-06	1.3
    29	8.21886e-06	1.3
    30	8.33493e-06	1.3
    31	8.44772e-06	1.3
    32	8.55719e-06	1.3
    33	8.66332e-06	1.3
    34	8.76611e-06	1.3
    35	8.86562e-06	1.3
    36	8.96187e-06	1.3
    37	9.05495e-06	1.3
    38	9.14492e-06	1.3
    39	9.23186e-06	1.3
    40	9.31586e-06	1.3
    41	9.39701e-06	1.3
    42	9.47541e-06	1.3
    43	9.55114e-06	1.3
    44	9.62431e-06	1.3
    45	9.69499e-06	1.3
    46	9.7633e-06	1.3
    47	9.8293e-06	1.3
    48	9.89311e-06	1.3
    49	9.95479e-06	1.3
    50	1.00144e-05	1.3
    51	1.00721e-05	1.3
    52	1.01279e-05	1.3
    53	1.01819e-05	1.3
    54	1.02342e-05	1.3
    55	1.02848e-05	1.3
    56	1.03339e-05	1.3
    57	1.03814e-05	1.3
    58	1.04274e-05	1.3
    59	1.0472e-05	1.3
    60	1.05153e-05	1.3
    61	1.05573e-05	1.3
    62	1.0598e-05	1.3
    63	1.06375e-05	1.3
    64	1.06759e-05	1.3
    65	1.07132e-05	1.3
    66	1.07494e-05	1.3
    67	1.07846e-05	1.3
    68	1.08188e-05	1.3
    69	1.08521e-05	1.3
    70	1.08844e-05	1.3
    71	1.09159e-05	1.3
    72	1.09466e-05	1.3
    73	1.09764e-05	1.3
    74	1.10055e-05	1.3
    75	1.10338e-05	1.3
    76	1.10614e-05	1.3
    77	1.10882e-05	1.3
    78	1.11144e-05	1.3
    79	1.114e-05	1.3
    80	1.11649e-05	1.3
    81	1.11892e-05	1.3
    82	1.1213e-05	1.3
    83	1.12362e-05	1.3
    84	1.12588e-05	1.3
    85	1.12809e-05	1.3
    86	1.13025e-05	1.3
    87	1.13236e-05	1.3
    88	1.13442e-05	1.3
    89	1.13644e-05	1.3
    90	1.13841e-05	1.3
    91	1.14034e-05	1.3
    92	1.14222e-05	1.3
    93	1.14407e-05	1.3
    94	1.14587e-05	1.3
    95	1.14764e-05	1.3
    96	1.14937e-05	1.3
    97	1.15107e-05	1.3
    98	1.15273e-05	1.3
    99	1.15436e-05	1.3
   100	1.15595e-05	1.3
   101	1.15752e-05	1.3
   102	1.15905e-05	1.3
   103	1.16055e-05	1.3
   104	1.16202e-05	1.3
   105	1.16347e-05	1.3
   106	1.16489e-05	1.3
   107	1.16628e-05	1.3
   108	1.16764e-05	1.3
   109	1.16898e-05	1.3
   110	1.1703e-05	1.3
   111	1.17159e-05	1.3
   112	1.17286e-05	1.3
   113	1.1741e-05	1.3
   114	1.17533e-05	1.3
   115	1.17653e-05	1.3
   116	1.17771e-05	1.3
   117	1.17887e-05	1.3
   118	1.18001e-05	1.3
   119	1.18114e-05	1.3
   120	1.18224e-05	1.3
   121	1.18332e-05	1.3
   122	1.18439e-05	1.3
   123	1.18544e-05	1.3
   124	1.18647e-05	1.3
   125	1.18749e-05	1.3
   126	1.18849e-05	1.3
   127	1.18948e-05	1.3
   128	1.19045e-05	1.3
   129	1.1914e-05	1.3
   130	1.19234e-05	1.3
   131	1.19326e-05	1.3
   132	1.19418e-05	1.3
   133	1.19507e-05	1.3
   134	1.19596e-05	1.3
   135	1.19683e-05	1.3
   136	1.19769e-05	1.3
   137	1.19853e-05	1.3
   138	1.19937e-05	1.3
   139	1.20019e-05	1.3
   140	1.201e-05	1.3
   141	1.2018e-05	1.3
   142	1.20259e-05	1.3
   143	1.20336e-05	1.3
   144	1.20413e-05	1.3
   145	1.20489e-05	1.3
   146	1.20563e-05	1.3
   147	1.20637e-05	1.3
   148	1.20709e-05	1.3
   149	1.20781e-05	1.3
   150	1.20852e-05	1.3
   151	1.20921e-05	1.3
   152	1.2099e-05	1.3
   153	1.21058e-05	1.3
   154	1.21125e-05	1.3
   155	1.21192e-05	1.3
   156	1.21257e-05	1.3
   157	1.21322e-05	1.3
   158	1.21386e-05	1.3
   159	1.21449e-05	1.3
   160	1.21511e-05	1.3
   161	1.21573e-05	1.3
   162	1.21633e-05	1.3
   163	1.21694e-05	1.3
   164	1.21753e-05	1.3
   165	1.21812e-05	1.3
   166	1.2187e-05	1.3
   167	1.21927e-05	1.3
   168	1.21984e-05	1.3
   169	1.2204e-05	1.3
   170	1.22095e-05	1.3
   171	1.2215e-05	1.3
   172	1.22204e-05	1.3
   173	1.22257e-05	1.3
   174	1.2231e-05	1.3
   175	1.22363e-05	1.3
   176	1.22415e-05	1.3
   177	1.22466e-05	1.3
   178	1.22517e-05	1.3
   179	1.22567e-05	1.3
   180	1.22616e-05	1.3
   181	1.22665e-05	1.3
   182	1.22714e-05	1.3
   183	1.22762e-05	1.3
   184	1.2281e-05	1.3
   185	1.22857e-05	1.3
   186	1.22903e-05	1.3
   187	1.2295e-05	1.3
   188	1.22995e-05	1.3
   189	1.23041e-05	1.3
   190	1.23085e-05	1.3
   191	1.2313e-05	1.3
   192	1.23174e-05	1.3
   193	1.23217e-05	1.3
   194	1.2326e-05	1.3
   195	1.23303e-05	1.3
   196	1.23345e-05	1.3
   197	1.23387e-05	1.3
   198	1.23428e-05	1.3
   199	1.23469e-05	1.3
   200	1.2351e-05	1.3
   201	1.2355e-05	1.3
   202	1.2359e-05	1.3
   203	1.2363e-05	1.3
   204	1.23669e-05	1.3
   205	1.23708e-05	1.3
   206	1.23746e-05	1.3
   207	1.23784e-05	1.3
   208	1.23822e-05	1.3
   209	1.2386e-05	1.3
   210	1.23897e-05	1.3
   211	1.23934e-05	1.3
   212	1.2397e-05	1.3
   213	1.24006e-05	1.3
   214	1.24042e-05	1.3
   215	1.24078e-05	1.3
   216	1.24113e-05	1.3
   217	1.24148e-05	1.3
   218	1.24182e-05	1.3
   219	1.24217e-05	1.3
   220	1.24251e-05	1.3
   221	1.24285e-05	1.3
   222	1.24318e-05	1.3
   223	1.24351e-05	1.3
   224	1.24384e-05	1.3
   225	1.24417e-05	1.3
   226	1.24449e-05	1.3
   227	1.24482e-05	1.3
   228	1.24513e-05	1.3
   229	1.24545e-05	1.3
   230	1.24576e-05	1.3
   231	1.24608e-05	1.3
   232	1.24639e-05	1.3
   233	1.24669e-05	1.3
   234	1.247e-05	1.3
   235	1.2473e-05	1.3
   236	1.2476e-05	1.3
   237	1.24789e-05	1.3
   238	1.24819e-05	1.3
   239	1.24848e-05	1.3
   240	1.24877e-05	1.3
   241	1.24906e-05	1.3
   242	1.24935e-05	1.3
   243	1.24963e-05	1.3
   244	1.24991e-05	1.3
   245	1.25019e-05	1.3
   246	1.25047e-05	1.3
   247	1.25075e-05	1.3
   248	1.25102e-05	1.3
   249	1.25129e-05	1.3
   250	1.25156e-05	1.3
   251	1.25183e-05	1.3
   252	1.25209e-05	1.3
   253	1.25236e-05	1.3
   254	1.25262e-05	1.3
   255	1.25288e-05	1.3
   256	1.25314e-05	1.3
   257	1.2534e-05	1.3
   258	1.25365e-05	1.3
   259	1.2539e-05	1.3
   260	1.25415e-05	1.3
   261	1.2544e-05	1.3
   262	1.25465e-05	1.3
   263	1.2549e-05	1.3
   264	1.25514e-05	1.3
   265	1.25538e-05	1.3
   266	1.25563e-05	1.3
   267	1.25587e-05	1.3
   268	1.2561e-05	1.3
   269	1.25634e-05	1.3
   270	1.25657e-05	1.3
   271	1.25681e-05	1.3
   272	1.25704e-05	1.3
   273	1.25727e-05	1.3
   274	1.2575e-05	1.3
   275	1.25772e-05	1.3
   276	1.25795e-05	1.3
   277	1.25817e-05	1.3
   278	1.2584e-05	1.3
   279	1.25862e-05	1.3
   280	1.25884e-05	1.3
   281	1.25906e-05	1.3
   282	1.25927e-05	1.3
   283	1.25949e-05	1.3
   284	1.2597e-05	1.3
   285	1.25992e-05	1.3
   286	1.26013e-05	1.3
   287	1.26034e-05	1.3
   288	1.26055e-05	1.3
   289	1.26076e-05	1.3
   290	1.26096e-05	1.3
   291	1.26117e-05	1.3
   292	1.26137e-05	1.3
   293	1.26157e-05	1.3
   294	1.26177e-05	1.3
   295	1.26198e-05	1.3
   296	1.26217e-05	1.3
   297	1.26237e-05	1.3
   298	1.26257e-05	1.3
   299	1.26276e-05	1.3
   300	1.26296e-05	1.3
   301	1.26315e-05	1.3
   302	1.26334e-05	1.3
   303	1.26353e-05	1.3
   304	1.26372e-05	1.3
   305	1.26391e-05	1.3
   306	1.2641e-05	1.3
   307	1.26429e-05	1.3
   308	1.26447e-05	1.3
   309	1.26466e-05	1.3
   310	1.26484e-05	1.3
   311	1.26502e-05	1.3
   312	1.2652e-05	1.3
   313	1.26538e-05	1.3
   314	1.26556e-05	1.3
   315	1.26574e-05	1.3
   316	1.26592e-05	1.3
   317	1.26609e-05	1.3
   318	1.26627e-05	1.3
   319	1.26644e-05	1.3
   320	1.26661e-05	1.3
   321	1.26679e-05	1.3
   322	1.26696e-05	1.3
   323	1.26713e-05	1.3
   324	1.2673e-05	1.3
   325	1.26747e-05	1.3
   326	1.26763e-05	1.3
   327	1.2678e-05	1.3
   328	1.26796e-05	1.3
   329	1.26813e-05	1.3
   330	1.26829e-05	1.3
   331	1.26846e-05	1.3
   332	1.26862e-05	1.3
   333	1.26878e-05	1.3
   334	1.26894e-05	1.3
   335	1.2691e-05	1.3
   336	1.26926e-05	1.3
   337	1.26941e-05	1.3
   338	1.26957e-05	1.3
   339	1.26973e-05	1.3
   340	1.26988e-05	1.3
   341	1.27004e-05	1.3
   342	1.27019e-05	1.3
   343	1.27034e-05	1.3
   344	1.2705e-05	1.3
   345	1.27065e-05	1.3
   346	1.2708e-05	1.3
   347	1.27095e-05	1.3
   348	1.2711e-05	1.3
   349	1.27124e-05	1.3
   350	1.27139e-05	1.3
   351	1.27154e-05	1.3
   352	1.27168e-05	1.3
   353	1.27183e-05	1.3
   354	1.27197e-05	1.3
   355	1.27212e-05	1.3
   356	1.27226e-05	1.3
   357	1.2724e-05	1.3
   358	1.27254e-05	1.3
   359	1.27268e-05	1.3
   360	1.27282e-05	1.3
   361	1.27296e-05	1.3
   362	1.2731e-05	1.3
   363	1.27324e-05	1.3
   364	1.27338e-05	1.3
   365	1.27351e-05	1.3
   366	1.27365e-05	1.3
   367	1.27379e-05	1.3
   368	1.27392e-05	1.3
   369	1.27405e-05	1.3
   370	1.27419e-05	1.3
   371	1.27432e-05	1.3
   372	1.27445e-05	1.3
   373	1.27458e-05	1.3
   374	1.27471e-05	1.3
   375	1.27484e-05	1.3
   376	1.27497e-05	1.3
   377	1.2751e-05	1.3
   378	1.27523e-05	1.3
   379	1.27536e-05	1.3
   380	1.27549e-05	1.3
   381	1.27561e-05	1.3
   382	1.27574e-05	1.3
   383	1.27586e-05	1.3
   384	1.27599e-05	1.3
   385	1.27611e-05	1.3
   386	1.27623e-05	1.3
   387	1.27636e-05	1.3
   388	1.27648e-05	1.3
   389	1.2766e-05	1.3
   390	1.27672e-05	1.3
   391	1.27684e-05	1.3
   392	1.27696e-05	1.3
   393	1.27708e-05	1.3
   394	1.2772e-05	1.3
   395	1.27732e-05	1.3
   396	1.27744e-05	1.3
   397	1.27756e-05	1.3
   398	1.27767e-05	1.3
   399	1.27779e-05	1.3
   400	1.2779e-05	1.3
   401	1.27802e-05	1.3
   402	1.27813e-05	1.3
   403	1.27825e-05	1.3
   404	1.27836e-05	1.3
   405	1.27848e-05	1.3
   406	1.27859e-05	1.3
   407	1.2787e-05	1.3
   408	1.27881e-05	1.3
   409	1.27892e-05	1.3
   410	1.27903e-05	1.3
   411	1.27914e-05	1.3
   412	1.27925e-05	1.3
   413	1.27936e-05	1.3
   414	1.27947e-05	1.3
   415	1.27958e-05	1.3
   416	1.27969e-05	1.3
   417	1.27979e-05	1.3
   418	1.2799e-05	1.3
   419	1.28001e-05	1.3
   420	1.28011e-05	1.3
   421	1.28022e-05	1.3
   422	1.28032e-05	1.3
   423	1.28043e-05	1.3
   424	1.28053e-05	1.3
   425	1.28064e-05	1.3
   426	1.28074e-05	1.3
   427	1.28084e-05	1.3
   428	1.28094e-05	1.3
   429	1.28105e-05	1.3
   430	1.28115e-05	1.3
   431	1.28125e-05	1.3
   432	1.28135e-05	1.3
   433	1.28145e-05	1.3
   434	1.28155e-05	1.3
   435	1.28165e-05	1.3
   436	1.28175e-05	1.3
   437	1.28184e-05	1.3
   438	1.28194e-05	1.3
   439	1.28204e-05	1.3
   440	1.28214e-05	1.3
   441	1.28223e-05	1.3
   442	1.28233e-05	1.3
   443	1.28243e-05	1.3
   444	1.28252e-05	1.3
   445	1.28262e-05	1.3
   446	1.28271e-05	1.3
   447	1.28281e-05	1.3
   448	1.2829e-05	1.3
   449	1.28299e-05	1.3
   450	1.28309e-05	1.3
   451	1.28318e-05	1.3
   452	1.28327e-05	1.3
   453	1.28336e-05	1.3
   454	1.28346e-05	1.3
   455	1.28355e-05	1.3
   456	1.28364e-05	1.3
   457	1.28373e-05	1.3
   458	1.28382e-05	1.3
   459	1.28391e-05	1.3
   460	1.284e-05	1.3
   461	1.28409e-05	1.3
   462	1.28418e-05	1.3
   463	1.28427e-05	1.3
   464	1.28435e-05	1.3
   465	1.28444e-05	1.3
   466	1.28453e-05	1.3
   467	1.28462e-05	1.3
   468	1.2847e-05	1.3
   469	1.28479e-05	1.3
   470	1.28487e-05	1.3
   471	1.28496e-05	1.3
   472	1.28505e-05	1.3
   473	1.28513e-05	1.3
   474	1.28522e-05	1.3
   475	1.2853e-05	1.3
   476	1.28538e-05	1.3
   477	1.28547e-05	1.3
   478	1.28555e-05	1.3
   479	1.28563e-05	1.3
   480	1.28572e-05	1.3
   481	1.2858e-05	1.3
   482	1.28588e-05	1.3
   483	1.28596e-05	1.3
   484	1.28604e-05	1.3
   485	1.28613e-05	1.3
   486	1.28621e-05	1.3
   487	1.28629e-05	1.3
   488	1.28637e-05	1.3
   489	1.28645e-05	1.3
   490	1.28653e-05	1.3
   491	1.28661e-05	1.3
   492	1.28668e-05	1.3
   493	1.28676e-05	1.3
   494	1.28684e-05	1.3
   495	1.28692e-05	1.3
   496	1.287e-05	1.3

Measurement: id0
  step	id(m1)	at
     1	2.80265e-05	0.9
     2	1.85891e-05	0.9
     3	1.35845e-05	0.9
     4	1.06668e-05	0.9
     5	8.873e-06	0.9
     6	7.73568e-06	0.9
     7	7.00469e-06	0.9
     8	6.53684e-06	0.9
     9	6.24573e-06	0.9
    10	6.07689e-06	0.9
    11	5.99462e-06	0.9
    12	5.97469e-06	0.9
    13	6.00016e-06	0.9
    14	6.0589e-06	0.9
    15	6.14203e-06	0.9
    16	6.24294e-06	0.9
    17	6.35663e-06	0.9
    18	6.4793e-06	0.9
    19	6.60803e-06	0.9
    20	6.74055e-06	0.9
    21	6.87513e-06	0.9
    22	7.0104e-06	0.9
    23	7.1453e-06	0.9
    24	7.27903e-06	0.9
    25	7.41095e-06	0.9
    26	7.54058e-06	0.9
    27	7.66758e-06	0.9
    28	7.79168e-06	0.9
    29	7.91268e-06	0.9
    30	8.03047e-06	0.9
    31	8.14497e-06	0.9
    32	8.25613e-06	0.9
    33	8.36396e-06	0.9
    34	8.46846e-06	0.9
    35	8.56968e-06	0.9
    36	8.66767e-06	0.9
    37	8.7625e-06	0.9
    38	8.85424e-06	0.9
    39	8.94296e-06	0.9
    40	9.02876e-06	0.9
    41	9.11173e-06	0.9
    42	9.19196e-06	0.9
    43	9.26953e-06	0.9
    44	9.34455e-06	0.9
    45	9.4171e-06	0.9
    46	9.48727e-06	0.9
    47	9.55515e-06	0.9
    48	9.62084e-06	0.9
    49	9.6844e-06	0.9
    50	9.74593e-06	0.9
    51	9.80551e-06	0.9
    52	9.86321e-06	0.9
    53	9.9191e-06	0.9
    54	9.97326e-06	0.9
    55	1.00258e-05	0.9
    56	1.00767e-05	0.9
    57	1.0126e-05	0.9
    58	1.01739e-05	0.9
    59	1.02204e-05	0.9
    60	1.02655e-05	0.9
    61	1.03093e-05	0.9
    62	1.03519e-05	0.9
    63	1.03932e-05	0.9
    64	1.04334e-05	0.9
    65	1.04725e-05	0.9
    66	1.05105e-05	0.9
    67	1.05474e-05	0.9
    68	1.05834e-05	0.9
    69	1.06184e-05	0.9
    70	1.06525e-05	0.9
    71	1.06857e-05	0.9
    72	1.07181e-05	0.9
    73	1.07496e-05	0.9
    74	1.07804e-05	0.9
    75	1.08103e-05	0.9
    76	1.08396e-05	0.9
    77	1.08681e-05	0.9
    78	1.08959e-05	0.9
    79	1.09231e-05	0.9
    80	1.09496e-05	0.9
    81	1.09755e-05	0.9
    82	1.10008e-05	0.9
    83	1.10256e-05	0.9
    84	1.10497e-05	0.9
    85	1.10734e-05	0.9
    86	1.10965e-05	0.9
    87	1.11191e-05	0.9
    88	1.11412e-05	0.9
    89	1.11628e-05	0.9
    90	1.1184e-05	0.9
    91	1.12047e-05	0.9
    92	1.1225e-05	0.9
    93	1.12448e-05	0.9
    94	1.12643e-05	0.9
    95	1.12834e-05	0.9
    96	1.13021e-05	0.9
    97	1.13204e-05	0.9
    98	1.13383e-05	0.9
    99	1.13559e-05	0.9
   100	1.13732e-05	0.9
   101	1.13901e-05	0.9
   102	1.14067e-05	0.9
   103	1.1423e-05	0.9
   104	1.1439e-05	0.9
   105	1.14547e-05	0.9
   106	1.14702e-05	0.9
   107	1.14853e-05	0.9
   108	1.15002e-05	0.9
   109	1.15147e-05	0.9
   110	1.15291e-05	0.9
   111	1.15432e-05	0.9
   112	1.1557e-05	0.9
   113	1.15706e-05	0.9
   114	1.1584e-05	0.9
   115	1.15972e-05	0.9
   116	1.16101e-05	0.9
   117	1.16228e-05	0.9
   118	1.16353e-05	0.9
   119	1.16476e-05	0.9
   120	1.16597e-05	0.9
   121	1.16716e-05	0.9
   122	1.16833e-05	0.9
   123	1.16949e-05	0.9
   124	1.17062e-05	0.9
   125	1.17174e-05	0.9
   126	1.17284e-05	0.9
   127	1.17393e-05	0.9
   128	1.17499e-05	0.9
   129	1.17604e-05	0.9
   130	1.17708e-05	0.9
   131	1.1781e-05	0.9
   132	1.17911e-05	0.9
   133	1.1801e-05	0.9
   134	1.18107e-05	0.9
   135	1.18204e-05	0.9
   136	1.18298e-05	0.9
   137	1.18392e-05	0.9
   138	1.18484e-05	0.9
   139	1.18575e-05	0.9
   140	1.18665e-05	0.9
   141	1.18753e-05	0.9
   142	1.1884e-05	0.9
   143	1.18927e-05	0.9
   144	1.19011e-05	0.9
   145	1.19095e-05	0.9
   146	1.19178e-05	0.9
   147	1.19259e-05	0.9
   148	1.1934e-05	0.9
   149	1.1942e-05	0.9
   150	1.19498e-05	0.9
   151	1.19575e-05	0.9
   152	1.19652e-05	0.9
   153	1.19728e-05	0.9
   154	1.19802e-05	0.9
   155	1.19876e-05	0.9
   156	1.19949e-05	0.9
   157	1.2002e-05	0.9
   158	1.20091e-05	0.9
   159	1.20162e-05	0.9
   160	1.20231e-05	0.9
   161	1.20299e-05	0.9
   162	1.20367e-05	0.9
   163	1.20434e-05	0.9
   164	1.205e-05	0.9
   165	1.20565e-05	0.9
   166	1.2063e-05	0.9
   167	1.20694e-05	0.9
   168	1.20757e-05	0.9
   169	1.20819e-05	0.9
   170	1.20881e-05	0.9
   171	1.20942e-05	0.9
   172	1.21002e-05	0.9
   173	1.21062e-05	0.9
   174	1.21121e-05	0.9
   175	1.21179e-05	0.9
   176	1.21237e-05	0.9
   177	1.21294e-05	0.9
   178	1.21351e-05	0.9
   179	1.21407e-05	0.9
   180	1.21462e-05	0.9
   181	1.21517e-05	0.9
   182	1.21571e-05	0.9
   183	1.21625e-05	0.9
   184	1.21678e-05	0.9
   185	1.2173e-05	0.9
   186	1.21782e-05	0.9
   187	1.21834e-05	0.9
   188	1.21885e-05	0.9
   189	1.21935e-05	0.9
   190	1.21985e-05	0.9
   191	1.22035e-05	0.9
   192	1.22084e-05	0.9
   193	1.22132e-05	0.9
   194	1.2218e-05	0.9
   195	1.22228e-05	0.9
   196	1.22275e-05	0.9
   197	1.22322e-05	0.9
   198	1.22368e-05	0.9
   199	1.22414e-05	0.9
   200	1.22459e-05	0.9
   201	1.22504e-05	0.9
   202	1.22548e-05	0.9
   203	1.22592e-05	0.9
   204	1.22636e-05	0.9
   205	1.22679e-05	0.9
   206	1.22722e-05	0.9
   207	1.22765e-05	0.9
   208	1.22807e-05	0.9
   209	1.22849e-05	0.9
   210	1.2289e-05	0.9
   211	1.22931e-05	0.9
   212	1.22972e-05	0.9
   213	1.23012e-05	0.9
   214	1.23052e-05	0.9
   215	1.23092e-05	0.9
   216	1.23131e-05	0.9
   217	1.2317e-05	0.9
   218	1.23209e-05	0.9
   219	1.23247e-05	0.9
   220	1.23285e-05	0.9
   221	1.23322e-05	0.9
   222	1.2336e-05	0.9
   223	1.23397e-05	0.9
   224	1.23433e-05	0.9
   225	1.2347e-05	0.9
   226	1.23506e-05	0.9
   227	1.23542e-05	0.9
   228	1.23577e-05	0.9
   229	1.23612e-05	0.9
   230	1.23647e-05	0.9
   231	1.23682e-05	0.9
   232	1.23716e-05	0.9
   233	1.2375e-05	0.9
   234	1.23784e-05	0.9
   235	1.23818e-05	0.9
   236	1.23851e-05	0.9
   237	1.23884e-05	0.9
   238	1.23917e-05	0.9
   239	1.23949e-05	0.9
   240	1.23982e-05	0.9
   241	1.24014e-05	0.9
   242	1.24046e-05	0.9
   243	1.24077e-05	0.9
   244	1.24108e-05	0.9
   245	1.24139e-05	0.9
   246	1.2417e-05	0.9
   247	1.24201e-05	0.9
   248	1.24231e-05	0.9
   249	1.24261e-05	0.9
   250	1.24291e-05	0.9
   251	1.24321e-05	0.9
   252	1.24351e-05	0.9
   253	1.2438e-05	0.9
   254	1.24409e-05	0.9
   255	1.24438e-05	0.9
   256	1.24466e-05	0.9
   257	1.24495e-05	0.9
   258	1.24523e-05	0.9
   259	1.24551e-05	0.9
   260	1.24579e-05	0.9
   261	1.24607e-05	0.9
   262	1.24634e-05	0.9
   263	1.24661e-05	0.9
   264	1.24688e-05	0.9
   265	1.24715e-05	0.9
   266	1.24742e-05	0.9
   267	1.24769e-05	0.9
   268	1.24795e-05	0.9
   269	1.24821e-05	0.9
   270	1.24847e-05	0.9
   271	1.24873e-05	0.9
   272	1.24898e-05	0.9
   273	1.24924e-05	0.9
   274	1.24949e-05	0.9
   275	1.24974e-05	0.9
   276	1.24999e-05	0.9
   277	1.25024e-05	0.9
   278	1.25049e-05	0.9
   279	1.25073e-05	0.9
   280	1.25097e-05	0.9
   281	1.25122e-05	0.9
   282	1.25146e-05	0.9
   283	1.25169e-05	0.9
   284	1.25193e-05	0.9
   285	1.25217e-05	0.9
   286	1.2524e-05	0.9
   287	1.25263e-05	0.9
   288	1.25286e-05	0.9
   289	1.25309e-05	0.9
   290	1.25332e-05	0.9
   291	1.25354e-05	0.9
   292	1.25377e-05	0.9
   293	1.25399e-05	0.9
   294	1.25422e-05	0.9
   295	1.25444e-05	0.9
   296	1.25466e-05	0.9
   297	1.25487e-05	0.9
   298	1.25509e-05	0.9
   299	1.25531e-05	0.9
   300	1.25552e-05	0.9
   301	1.25573e-05	0.9
   302	1.25594e-05	0.9
   303	1.25615e-05	0.9
   304	1.25636e-05	0.9
   305	1.25657e-05	0.9
   306	1.25678e-05	0.9
   307	1.25698e-05	0.9
   308	1.25719e-05	0.9
   309	1.25739e-05	0.9
   310	1.25759e-05	0.9
   311	1.25779e-05	0.9
   312	1.25799e-05	0.9
   313	1.25819e-05	0.9
   314	1.25838e-05	0.9
   315	1.25858e-05	0.9
   316	1.25877e-05	0.9
   317	1.25897e-05	0.9
   318	1.25916e-05	0.9
   319	1.25935e-05	0.9
   320	1.25954e-05	0.9
   321	1.25973e-05	0.9
   322	1.25992e-05	0.9
   323	1.26011e-05	0.9
   324	1.26029e-05	0.9
   325	1.26048e-05	0.9
   326	1.26066e-05	0.9
   327	1.26084e-05	0.9
   328	1.26102e-05	0.9
   329	1.2612e-05	0.9
   330	1.26138e-05	0.9
   331	1.26156e-05	0.9
   332	1.26174e-05	0.9
   333	1.26192e-05	0.9
   334	1.26209e-05	0.9
   335	1.26227e-05	0.9
   336	1.26244e-05	0.9
   337	1.26261e-05	0.9
   338	1.26279e-05	0.9
   339	1.26296e-05	0.9
   340	1.26313e-05	0.9
   341	1.2633e-05	0.9
   342	1.26346e-05	0.9
   343	1.26363e-05	0.9
   344	1.2638e-05	0.9
   345	1.26396e-05	0.9
   346	1.26413e-05	0.9
   347	1.26429e-05	0.9
   348	1.26446e-05	0.9
   349	1.26462e-05	0.9
   350	1.26478e-05	0.9
   351	1.26494e-05	0.9
   352	1.2651e-05	0.9
   353	1.26526e-05	0.9
   354	1.26541e-05	0.9
   355	1.26557e-05	0.9
   356	1.26573e-05	0.9
   357	1.26588e-05	0.9
   358	1.26604e-05	0.9
   359	1.26619e-05	0.9
   360	1.26635e-05	0.9
   361	1.2665e-05	0.9
   362	1.26665e-05	0.9
   363	1.2668e-05	0.9
   364	1.26695e-05	0.9
   365	1.2671e-05	0.9
   366	1.26725e-05	0.9
   367	1.26739e-05	0.9
   368	1.26754e-05	0.9
   369	1.26769e-05	0.9
   370	1.26783e-05	0.9
   371	1.26798e-05	0.9
   372	1.26812e-05	0.9
   373	1.26827e-05	0.9
   374	1.26841e-05	0.9
   375	1.26855e-05	0.9
   376	1.26869e-05	0.9
   377	1.26883e-05	0.9
   378	1.26897e-05	0.9
   379	1.26911e-05	0.9
   380	1.26925e-05	0.9
   381	1.26939e-05	0.9
   382	1.26952e-05	0.9
   383	1.26966e-05	0.9
   384	1.2698e-05	0.9
   385	1.26993e-05	0.9
   386	1.27007e-05	0.9
   387	1.2702e-05	0.9
   388	1.27033e-05	0.9
   389	1.27047e-05	0.9
   390	1.2706e-05	0.9
   391	1.27073e-05	0.9
   392	1.27086e-05	0.9
   393	1.27099e-05	0.9
   394	1.27112e-05	0.9
   395	1.27125e-05	0.9
   396	1.27138e-05	0.9
   397	1.27151e-05	0.9
   398	1.27163e-05	0.9
   399	1.27176e-05	0.9
   400	1.27188e-05	0.9
   401	1.27201e-05	0.9
   402	1.27213e-05	0.9
   403	1.27226e-05	0.9
   404	1.27238e-05	0.9
   405	1.27251e-05	0.9
   406	1.27263e-05	0.9
   407	1.27275e-05	0.9
   408	1.27287e-05	0.9
   409	1.27299e-05	0.9
   410	1.27311e-05	0.9
   411	1.27323e-05	0.9
   412	1.27335e-05	0.9
   413	1.27347e-05	0.9
   414	1.27359e-05	0.9
   415	1.27371e-05	0.9
   416	1.27382e-05	0.9
   417	1.27394e-05	0.9
   418	1.27406e-05	0.9
   419	1.27417e-05	0.9
   420	1.27429e-05	0.9
   421	1.2744e-05	0.9
   422	1.27451e-05	0.9
   423	1.27463e-05	0.9
   424	1.27474e-05	0.9
   425	1.27485e-05	0.9
   426	1.27497e-05	0.9
   427	1.27508e-05	0.9
   428	1.27519e-05	0.9
   429	1.2753e-05	0.9
   430	1.27541e-05	0.9
   431	1.27552e-05	0.9
   432	1.27563e-05	0.9
   433	1.27574e-05	0.9
   434	1.27584e-05	0.9
   435	1.27595e-05	0.9
   436	1.27606e-05	0.9
   437	1.27617e-05	0.9
   438	1.27627e-05	0.9
   439	1.27638e-05	0.9
   440	1.27648e-05	0.9
   441	1.27659e-05	0.9
   442	1.27669e-05	0.9
   443	1.2768e-05	0.9
   444	1.2769e-05	0.9
   445	1.277e-05	0.9
   446	1.27711e-05	0.9
   447	1.27721e-05	0.9
   448	1.27731e-05	0.9
   449	1.27741e-05	0.9
   450	1.27751e-05	0.9
   451	1.27762e-05	0.9
   452	1.27772e-05	0.9
   453	1.27782e-05	0.9
   454	1.27791e-05	0.9
   455	1.27801e-05	0.9
   456	1.27811e-05	0.9
   457	1.27821e-05	0.9
   458	1.27831e-05	0.9
   459	1.27841e-05	0.9
   460	1.2785e-05	0.9
   461	1.2786e-05	0.9
   462	1.2787e-05	0.9
   463	1.27879e-05	0.9
   464	1.27889e-05	0.9
   465	1.27898e-05	0.9
   466	1.27908e-05	0.9
   467	1.27917e-05	0.9
   468	1.27926e-05	0.9
   469	1.27936e-05	0.9
   470	1.27945e-05	0.9
   471	1.27954e-05	0.9
   472	1.27964e-05	0.9
   473	1.27973e-05	0.9
   474	1.27982e-05	0.9
   475	1.27991e-05	0.9
   476	1.28e-05	0.9
   477	1.28009e-05	0.9
   478	1.28018e-05	0.9
   479	1.28027e-05	0.9
   480	1.28036e-05	0.9
   481	1.28045e-05	0.9
   482	1.28054e-05	0.9
   483	1.28063e-05	0.9
   484	1.28072e-05	0.9
   485	1.28081e-05	0.9
   486	1.28089e-05	0.9
   487	1.28098e-05	0.9
   488	1.28107e-05	0.9
   489	1.28115e-05	0.9
   490	1.28124e-05	0.9
   491	1.28133e-05	0.9
   492	1.28141e-05	0.9
   493	1.2815e-05	0.9
   494	1.28158e-05	0.9
   495	1.28166e-05	0.9
   496	1.28175e-05	0.9

Measurement: rout
  step	(1.3-0.5)/(id2-id1)
     1	55665.1
     2	96835.6
     3	152065
     4	221244
     5	302569
     6	392869
     7	488173
     8	584325
     9	677534
    10	764749
    11	843864
    12	913739
    13	974082
    14	1.02525e+06
    15	1.06803e+06
    16	1.10346e+06
    17	1.13262e+06
    18	1.1566e+06
    19	1.17637e+06
    20	1.19279e+06
    21	1.20658e+06
    22	1.21836e+06
    23	1.2286e+06
    24	1.2377e+06
    25	1.24598e+06
    26	1.25366e+06
    27	1.26096e+06
    28	1.26801e+06
    29	1.27493e+06
    30	1.2818e+06
    31	1.2887e+06
    32	1.29566e+06
    33	1.30273e+06
    34	1.30994e+06
    35	1.3173e+06
    36	1.32482e+06
    37	1.33252e+06
    38	1.3404e+06
    39	1.34847e+06
    40	1.35672e+06
    41	1.36514e+06
    42	1.37375e+06
    43	1.38254e+06
    44	1.3915e+06
    45	1.40064e+06
    46	1.40994e+06
    47	1.4194e+06
    48	1.42903e+06
    49	1.4388e+06
    50	1.44873e+06
    51	1.4588e+06
    52	1.46902e+06
    53	1.47937e+06
    54	1.48986e+06
    55	1.50048e+06
    56	1.51123e+06
    57	1.5221e+06
    58	1.53309e+06
    59	1.5442e+06
    60	1.55543e+06
    61	1.56676e+06
    62	1.57821e+06
    63	1.58977e+06
    64	1.60142e+06
    65	1.61319e+06
    66	1.62505e+06
    67	1.637e+06
    68	1.64906e+06
    69	1.6612e+06
    70	1.67344e+06
    71	1.68577e+06
    72	1.69818e+06
    73	1.71069e+06
    74	1.72327e+06
    75	1.73594e+06
    76	1.74868e+06
    77	1.76151e+06
    78	1.77441e+06
    79	1.7874e+06
    80	1.80046e+06
    81	1.81358e+06
    82	1.82678e+06
    83	1.84006e+06
    84	1.8534e+06
    85	1.86681e+06
    86	1.88029e+06
    87	1.89383e+06
    88	1.90744e+06
    89	1.92111e+06
    90	1.93485e+06
    91	1.94864e+06
    92	1.9625e+06
    93	1.97641e+06
    94	1.99039e+06
    95	2.00442e+06
    96	2.0185e+06
    97	2.03264e+06
    98	2.04684e+06
    99	2.06109e+06
   100	2.07538e+06
   101	2.08974e+06
   102	2.10414e+06
   103	2.11859e+06
   104	2.13308e+06
   105	2.14763e+06
   106	2.16223e+06
   107	2.17686e+06
   108	2.19154e+06
   109	2.20627e+06
   110	2.22103e+06
   111	2.23585e+06
   112	2.25069e+06
   113	2.26559e+06
   114	2.28052e+06
   115	2.29549e+06
   116	2.31049e+06
   117	2.32554e+06
   118	2.34062e+06
   119	2.35573e+06
   120	2.37088e+06
   121	2.38606e+06
   122	2.40128e+06
   123	2.41652e+06
   124	2.4318e+06
   125	2.44711e+06
   126	2.46245e+06
   127	2.47781e+06
   128	2.4932e+06
   129	2.50863e+06
   130	2.52407e+06
   131	2.53954e+06
   132	2.55504e+06
   133	2.57056e+06
   134	2.5861e+06
   135	2.60167e+06
   136	2.61726e+06
   137	2.63287e+06
   138	2.64849e+06
   139	2.66414e+06
   140	2.67982e+06
   141	2.69549e+06
   142	2.71119e+06
   143	2.72692e+06
   144	2.74265e+06
   145	2.75841e+06
   146	2.77416e+06
   147	2.78995e+06
   148	2.80574e+06
   149	2.82154e+06
   150	2.83735e+06
   151	2.85318e+06
   152	2.86901e+06
   153	2.88486e+06
   154	2.90071e+06
   155	2.91658e+06
   156	2.93245e+06
   157	2.94833e+06
   158	2.96421e+06
   159	2.9801e+06
   160	2.996e+06
   161	3.01189e+06
   162	3.02779e+06
   163	3.0437e+06
   164	3.05961e+06
   165	3.07551e+06
   166	3.09142e+06
   167	3.10734e+06
   168	3.12325e+06
   169	3.13916e+06
   170	3.15507e+06
   171	3.17097e+06
   172	3.18687e+06
   173	3.20278e+06
   174	3.21869e+06
   175	3.23457e+06
   176	3.25048e+06
   177	3.26635e+06
   178	3.28223e+06
   179	3.29811e+06
   180	3.31399e+06
   181	3.32984e+06
   182	3.34569e+06
   183	3.36153e+06
   184	3.37737e+06
   185	3.39321e+06
   186	3.40902e+06
   187	3.42483e+06
   188	3.44062e+06
   189	3.45642e+06
   190	3.4722e+06
   191	3.48795e+06
   192	3.50369e+06
   193	3.51945e+06
   194	3.53515e+06
   195	3.55088e+06
   196	3.56657e+06
   197	3.58224e+06
   198	3.59791e+06
   199	3.61356e+06
   200	3.6292e+06
   201	3.64482e+06
   202	3.66042e+06
   203	3.67601e+06
   204	3.69157e+06
   205	3.70711e+06
   206	3.72266e+06
   207	3.73817e+06
   208	3.75366e+06
   209	3.76913e+06
   210	3.78458e+06
   211	3.80002e+06
   212	3.81543e+06
   213	3.83082e+06
   214	3.84619e+06
   215	3.86156e+06
   216	3.87688e+06
   217	3.8922e+06
   218	3.90748e+06
   219	3.92273e+06
   220	3.93797e+06
   221	3.95318e+06
   222	3.96839e+06
   223	3.98356e+06
   224	3.9987e+06
   225	4.0138e+06
   226	4.02892e+06
   227	4.04398e+06
   228	4.05904e+06
   229	4.07406e+06
   230	4.08906e+06
   231	4.10403e+06
   232	4.11897e+06
   233	4.13389e+06
   234	4.14877e+06
   235	4.16365e+06
   236	4.17849e+06
   237	4.19329e+06
   238	4.20807e+06
   239	4.22284e+06
   240	4.23755e+06
   241	4.25226e+06
   242	4.26692e+06
   243	4.28159e+06
   244	4.2962e+06
   245	4.31077e+06
   246	4.32534e+06
   247	4.33987e+06
   248	4.35437e+06
   249	4.36884e+06
   250	4.38327e+06
   251	4.39772e+06
   252	4.41208e+06
   253	4.42644e+06
   254	4.44074e+06
   255	4.45507e+06
   256	4.46933e+06
   257	4.48355e+06
   258	4.49776e+06
   259	4.51193e+06
   260	4.52607e+06
   261	4.54018e+06
   262	4.55428e+06
   263	4.56831e+06
   264	4.58235e+06
   265	4.59633e+06
   266	4.61028e+06
   267	4.62422e+06
   268	4.63812e+06
   269	4.65197e+06
   270	4.66579e+06
   271	4.67962e+06
   272	4.69338e+06
   273	4.70712e+06
   274	4.72081e+06
   275	4.73448e+06
   276	4.74813e+06
   277	4.76175e+06
   278	4.77532e+06
   279	4.78887e+06
   280	4.80238e+06
   281	4.81587e+06
   282	4.82933e+06
   283	4.84273e+06
   284	4.85612e+06
   285	4.86949e+06
   286	4.88281e+06
   287	4.8961e+06
   288	4.90936e+06
   289	4.9226e+06
   290	4.93577e+06
   291	4.94894e+06
   292	4.96206e+06
   293	4.97517e+06
   294	4.98823e+06
   295	5.00128e+06
   296	5.01428e+06
   297	5.02723e+06
   298	5.04019e+06
   299	5.05311e+06
   300	5.06597e+06
   301	5.07881e+06
   302	5.09163e+06
   303	5.10439e+06
   304	5.11716e+06
   305	5.12984e+06
   306	5.14256e+06
   307	5.15519e+06
   308	5.16782e+06
   309	5.18039e+06
   310	5.19296e+06
   311	5.2055e+06
   312	5.21797e+06
   313	5.23041e+06
   314	5.24285e+06
   315	5.25526e+06
   316	5.26763e+06
   317	5.27993e+06
   318	5.29225e+06
   319	5.30454e+06
   320	5.31675e+06
   321	5.32896e+06
   322	5.34116e+06
   323	5.35329e+06
   324	5.36543e+06
   325	5.37751e+06
   326	5.38956e+06
   327	5.40158e+06
   328	5.41355e+06
   329	5.42553e+06
   330	5.43744e+06
   331	5.44937e+06
   332	5.46121e+06
   333	5.47307e+06
   334	5.48487e+06
   335	5.49663e+06
   336	5.5084e+06
   337	5.52009e+06
   338	5.53179e+06
   339	5.54346e+06
   340	5.55509e+06
   341	5.56665e+06
   342	5.57823e+06
   343	5.58979e+06
   344	5.60129e+06
   345	5.61276e+06
   346	5.62417e+06
   347	5.63559e+06
   348	5.64699e+06
   349	5.65836e+06
   350	5.66967e+06
   351	5.68098e+06
   352	5.69227e+06
   353	5.70353e+06
   354	5.71472e+06
   355	5.72588e+06
   356	5.73704e+06
   357	5.74818e+06
   358	5.75928e+06
   359	5.77035e+06
   360	5.78139e+06
   361	5.79239e+06
   362	5.80336e+06
   363	5.81433e+06
   364	5.82527e+06
   365	5.83616e+06
   366	5.84703e+06
   367	5.85789e+06
   368	5.86872e+06
   369	5.87951e+06
   370	5.89025e+06
   371	5.901e+06
   372	5.91171e+06
   373	5.92242e+06
   374	5.93304e+06
   375	5.94367e+06
   376	5.95425e+06
   377	5.96483e+06
   378	5.97536e+06
   379	5.98589e+06
   380	5.99642e+06
   381	6.00686e+06
   382	6.0173e+06
   383	6.02773e+06
   384	6.03808e+06
   385	6.04846e+06
   386	6.05879e+06
   387	6.06912e+06
   388	6.07939e+06
   389	6.08962e+06
   390	6.09988e+06
   391	6.11009e+06
   392	6.1203e+06
   393	6.13045e+06
   394	6.14055e+06
   395	6.15068e+06
   396	6.16072e+06
   397	6.17079e+06
   398	6.18085e+06
   399	6.19086e+06
   400	6.20085e+06
   401	6.21079e+06
   402	6.22072e+06
   403	6.23063e+06
   404	6.24049e+06
   405	6.25038e+06
   406	6.26021e+06
   407	6.27002e+06
   408	6.27983e+06
   409	6.28957e+06
   410	6.29935e+06
   411	6.30906e+06
   412	6.31876e+06
   413	6.32844e+06
   414	6.33806e+06
   415	6.34772e+06
   416	6.35735e+06
   417	6.36688e+06
   418	6.37643e+06
   419	6.38597e+06
   420	6.39548e+06
   421	6.40498e+06
   422	6.41442e+06
   423	6.42388e+06
   424	6.43328e+06
   425	6.4427e+06
   426	6.45211e+06
   427	6.46144e+06
   428	6.47081e+06
   429	6.4801e+06
   430	6.48938e+06
   431	6.49868e+06
   432	6.50791e+06
   433	6.51712e+06
   434	6.52636e+06
   435	6.53552e+06
   436	6.54471e+06
   437	6.55383e+06
   438	6.56297e+06
   439	6.57205e+06
   440	6.58119e+06
   441	6.59022e+06
   442	6.59926e+06
   443	6.60824e+06
   444	6.61724e+06
   445	6.62626e+06
   446	6.63526e+06
   447	6.64418e+06
   448	6.65307e+06
   449	6.66199e+06
   450	6.67083e+06
   451	6.6797e+06
   452	6.68854e+06
   453	6.6974e+06
   454	6.70618e+06
   455	6.71498e+06
   456	6.72371e+06
   457	6.73246e+06
   458	6.74118e+06
   459	6.74987e+06
   460	6.75858e+06
   461	6.76727e+06
   462	6.77587e+06
   463	6.78454e+06
   464	6.79314e+06
   465	6.8017e+06
   466	6.81034e+06
   467	6.81883e+06
   468	6.82741e+06
   469	6.83595e+06
   470	6.84446e+06
   471	6.85294e+06
   472	6.86144e+06
   473	6.86985e+06
   474	6.87829e+06
   475	6.88669e+06
   476	6.89511e+06
   477	6.90344e+06
   478	6.9118e+06
   479	6.92017e+06
   480	6.92851e+06
   481	6.93682e+06
   482	6.94509e+06
   483	6.95338e+06
   484	6.96163e+06
   485	6.96991e+06
   486	6.97815e+06
   487	6.98629e+06
   488	6.99452e+06
   489	7.00276e+06
   490	7.01091e+06
   491	7.01902e+06
   492	7.02715e+06
   493	7.0353e+06
   494	7.04335e+06
   495	7.05148e+06
   496	7.05946e+06

Measurement: lambda
  step	1/(id0*rout)
     1	0.640985
     2	0.555529
     3	0.484091
     4	0.423735
     5	0.372482
     6	0.329044
     7	0.292441
     8	0.261805
     9	0.236312
    10	0.215179
    11	0.197681
    12	0.183173
    13	0.171097
    14	0.160982
    15	0.152441
    16	0.145163
    17	0.138896
    18	0.133441
    19	0.128643
    20	0.124378
    21	0.120549
    22	0.11708
    23	0.113912
    24	0.110997
    25	0.108297
    26	0.105783
    27	0.103429
    28	0.101215
    29	0.0991268
    30	0.0971491
    31	0.0952709
    32	0.0934829
    33	0.0917769
    34	0.0901458
    35	0.0885832
    36	0.0870843
    37	0.0856441
    38	0.0842584
    39	0.0829236
    40	0.0816362
    41	0.0803934
    42	0.0791923
    43	0.0780303
    44	0.0769054
    45	0.0758153
    46	0.0747581
    47	0.0737321
    48	0.0727357
    49	0.0717673
    50	0.0708256
    51	0.0699091
    52	0.0690168
    53	0.0681476
    54	0.0673004
    55	0.0664742
    56	0.065668
    57	0.0648811
    58	0.0641127
    59	0.063362
    60	0.0626282
    61	0.0619108
    62	0.061209
    63	0.0605224
    64	0.0598505
    65	0.0591924
    66	0.0585479
    67	0.0579166
    68	0.0572979
    69	0.0566913
    70	0.0560966
    71	0.0555134
    72	0.0549412
    73	0.0543796
    74	0.0538286
    75	0.0532877
    76	0.0527567
    77	0.052235
    78	0.0517226
    79	0.0512192
    80	0.0507246
    81	0.0502386
    82	0.0497608
    83	0.049291
    84	0.0488291
    85	0.0483749
    86	0.0479281
    87	0.0474887
    88	0.0470563
    89	0.0466309
    90	0.0462123
    91	0.0458003
    92	0.0453947
    93	0.0449954
    94	0.0446024
    95	0.0442153
    96	0.0438342
    97	0.0434588
    98	0.0430891
    99	0.0427249
   100	0.0423662
   101	0.0420126
   102	0.0416643
   103	0.0413211
   104	0.0409829
   105	0.0406495
   106	0.0403208
   107	0.039997
   108	0.0396777
   109	0.039363
   110	0.0390526
   111	0.0387465
   112	0.0384448
   113	0.0381471
   114	0.0378535
   115	0.0375641
   116	0.0372786
   117	0.0369969
   118	0.036719
   119	0.0364449
   120	0.0361745
   121	0.0359077
   122	0.0356443
   123	0.0353845
   124	0.0351281
   125	0.034875
   126	0.0346253
   127	0.0343788
   128	0.0341356
   129	0.0338954
   130	0.0336584
   131	0.0334243
   132	0.0331932
   133	0.0329651
   134	0.0327399
   135	0.0325175
   136	0.0322979
   137	0.032081
   138	0.031867
   139	0.0316555
   140	0.0314466
   141	0.0312404
   142	0.0310367
   143	0.0308353
   144	0.0306366
   145	0.0304402
   146	0.0302463
   147	0.0300546
   148	0.0298653
   149	0.0296783
   150	0.0294935
   151	0.0293109
   152	0.0291305
   153	0.0289522
   154	0.028776
   155	0.0286019
   156	0.0284298
   157	0.0282598
   158	0.0280917
   159	0.0279257
   160	0.0277615
   161	0.0275993
   162	0.0274389
   163	0.0272803
   164	0.0271236
   165	0.0269687
   166	0.0268155
   167	0.0266641
   168	0.0265144
   169	0.0263663
   170	0.02622
   171	0.0260753
   172	0.0259323
   173	0.0257908
   174	0.0256508
   175	0.0255126
   176	0.0253756
   177	0.0252404
   178	0.0251066
   179	0.0249742
   180	0.0248432
   181	0.0247138
   182	0.0245858
   183	0.0244591
   184	0.0243338
   185	0.0242097
   186	0.0240872
   187	0.0239659
   188	0.0238459
   189	0.0237271
   190	0.0236095
   191	0.0234934
   192	0.0233785
   193	0.0232646
   194	0.0231521
   195	0.0230406
   196	0.0229304
   197	0.0228214
   198	0.0227134
   199	0.0226066
   200	0.0225008
   201	0.0223962
   202	0.0222927
   203	0.0221901
   204	0.0220887
   205	0.0219883
   206	0.0218888
   207	0.0217905
   208	0.0216931
   209	0.0215967
   210	0.0215013
   211	0.0214068
   212	0.0213133
   213	0.0212207
   214	0.021129
   215	0.0210382
   216	0.0209484
   217	0.0208593
   218	0.0207712
   219	0.0206841
   220	0.0205977
   221	0.0205122
   222	0.0204274
   223	0.0203435
   224	0.0202604
   225	0.0201782
   226	0.0200967
   227	0.020016
   228	0.019936
   229	0.0198569
   230	0.0197785
   231	0.0197008
   232	0.0196239
   233	0.0195476
   234	0.0194722
   235	0.0193973
   236	0.0193233
   237	0.01925
   238	0.0191772
   239	0.0191052
   240	0.0190339
   241	0.0189632
   242	0.0188931
   243	0.0188236
   244	0.0187549
   245	0.0186868
   246	0.0186193
   247	0.0185523
   248	0.018486
   249	0.0184203
   250	0.0183552
   251	0.0182906
   252	0.0182267
   253	0.0181633
   254	0.0181006
   255	0.0180382
   256	0.0179765
   257	0.0179154
   258	0.0178547
   259	0.0177947
   260	0.0177351
   261	0.0176761
   262	0.0176175
   263	0.0175595
   264	0.0175019
   265	0.0174449
   266	0.0173884
   267	0.0173323
   268	0.0172767
   269	0.0172217
   270	0.0171671
   271	0.0171128
   272	0.0170592
   273	0.0170059
   274	0.0169531
   275	0.0169008
   276	0.0168489
   277	0.0167973
   278	0.0167463
   279	0.0166957
   280	0.0166454
   281	0.0165956
   282	0.0165462
   283	0.0164973
   284	0.0164486
   285	0.0164004
   286	0.0163526
   287	0.0163052
   288	0.0162582
   289	0.0162115
   290	0.0161653
   291	0.0161194
   292	0.0160739
   293	0.0160287
   294	0.0159839
   295	0.0159394
   296	0.0158952
   297	0.0158515
   298	0.015808
   299	0.0157649
   300	0.0157222
   301	0.0156798
   302	0.0156377
   303	0.015596
   304	0.0155545
   305	0.0155135
   306	0.0154726
   307	0.0154321
   308	0.0153919
   309	0.0153521
   310	0.0153125
   311	0.0152732
   312	0.0152343
   313	0.0151956
   314	0.0151572
   315	0.0151191
   316	0.0150812
   317	0.0150438
   318	0.0150065
   319	0.0149694
   320	0.0149328
   321	0.0148963
   322	0.0148601
   323	0.0148242
   324	0.0147885
   325	0.0147531
   326	0.014718
   327	0.0146831
   328	0.0146486
   329	0.0146141
   330	0.01458
   331	0.0145461
   332	0.0145125
   333	0.014479
   334	0.0144458
   335	0.0144129
   336	0.0143801
   337	0.0143477
   338	0.0143154
   339	0.0142834
   340	0.0142515
   341	0.01422
   342	0.0141886
   343	0.0141574
   344	0.0141265
   345	0.0140958
   346	0.0140653
   347	0.014035
   348	0.0140049
   349	0.0139749
   350	0.0139453
   351	0.0139158
   352	0.0138864
   353	0.0138573
   354	0.0138284
   355	0.0137997
   356	0.0137712
   357	0.0137428
   358	0.0137147
   359	0.0136867
   360	0.0136589
   361	0.0136313
   362	0.0136039
   363	0.0135766
   364	0.0135496
   365	0.0135227
   366	0.013496
   367	0.0134694
   368	0.0134429
   369	0.0134167
   370	0.0133907
   371	0.0133648
   372	0.0133391
   373	0.0133135
   374	0.0132881
   375	0.0132629
   376	0.0132378
   377	0.0132129
   378	0.0131881
   379	0.0131635
   380	0.013139
   381	0.0131147
   382	0.0130905
   383	0.0130665
   384	0.0130427
   385	0.0130189
   386	0.0129953
   387	0.0129719
   388	0.0129486
   389	0.0129255
   390	0.0129024
   391	0.0128795
   392	0.0128567
   393	0.0128341
   394	0.0128117
   395	0.0127893
   396	0.0127671
   397	0.012745
   398	0.012723
   399	0.0127012
   400	0.0126795
   401	0.0126579
   402	0.0126365
   403	0.0126152
   404	0.012594
   405	0.0125729
   406	0.0125519
   407	0.0125311
   408	0.0125103
   409	0.0124897
   410	0.0124692
   411	0.0124488
   412	0.0124285
   413	0.0124084
   414	0.0123884
   415	0.0123684
   416	0.0123485
   417	0.0123289
   418	0.0123093
   419	0.0122898
   420	0.0122704
   421	0.0122511
   422	0.012232
   423	0.0122129
   424	0.012194
   425	0.0121751
   426	0.0121563
   427	0.0121376
   428	0.012119
   429	0.0121006
   430	0.0120822
   431	0.0120639
   432	0.0120458
   433	0.0120277
   434	0.0120097
   435	0.0119918
   436	0.011974
   437	0.0119563
   438	0.0119387
   439	0.0119212
   440	0.0119036
   441	0.0118864
   442	0.0118691
   443	0.011852
   444	0.0118349
   445	0.0118179
   446	0.0118009
   447	0.0117841
   448	0.0117674
   449	0.0117507
   450	0.0117342
   451	0.0117177
   452	0.0117013
   453	0.0116849
   454	0.0116687
   455	0.0116525
   456	0.0116365
   457	0.0116205
   458	0.0116046
   459	0.0115887
   460	0.0115729
   461	0.0115572
   462	0.0115417
   463	0.011526
   464	0.0115106
   465	0.0114952
   466	0.0114798
   467	0.0114647
   468	0.0114494
   469	0.0114343
   470	0.0114192
   471	0.0114043
   472	0.0113893
   473	0.0113746
   474	0.0113598
   475	0.0113451
   476	0.0113305
   477	0.011316
   478	0.0113015
   479	0.011287
   480	0.0112727
   481	0.0112584
   482	0.0112442
   483	0.01123
   484	0.0112159
   485	0.0112019
   486	0.0111879
   487	0.0111741
   488	0.0111602
   489	0.0111463
   490	0.0111326
   491	0.011119
   492	0.0111054
   493	0.0110918
   494	0.0110783
   495	0.0110648
   496	0.0110516

Total elapsed time: 13.932 seconds.

