LTspice 24.0.9 for Windows
Circuit: * C:\Users\TVavrinec\Documents\skola\NAO\lab-1\sim\Draft3P.asc
Start Time: Tue Feb 27 22:06:54 2024
solver = Normal
Maximum thread count: 16



Warning: Pd = 0 is less than W.
Warning: Ps = 0 is less than W.
.step vsb=0



.step vsb=0.001



.step vsb=0.002



.step vsb=0.003



.step vsb=0.004



.step vsb=0.005



.step vsb=0.006



.step vsb=0.007



.step vsb=0.008



.step vsb=0.009



.step vsb=0.01



.step vsb=0.011



.step vsb=0.012



.step vsb=0.013



.step vsb=0.014



.step vsb=0.015



.step vsb=0.016



.step vsb=0.017



.step vsb=0.018



.step vsb=0.019



.step vsb=0.02



.step vsb=0.021



.step vsb=0.022



.step vsb=0.023



.step vsb=0.024



.step vsb=0.025



.step vsb=0.026



.step vsb=0.027



.step vsb=0.028



.step vsb=0.029



.step vsb=0.03



.step vsb=0.031



.step vsb=0.032



.step vsb=0.033



.step vsb=0.034



.step vsb=0.035



.step vsb=0.036



.step vsb=0.037



.step vsb=0.038



.step vsb=0.039



.step vsb=0.04



.step vsb=0.041



.step vsb=0.042



.step vsb=0.043



.step vsb=0.044



.step vsb=0.045



.step vsb=0.046



.step vsb=0.047



.step vsb=0.048



.step vsb=0.049



.step vsb=0.05



.step vsb=0.051



.step vsb=0.052



.step vsb=0.053



.step vsb=0.054



.step vsb=0.055



.step vsb=0.056



.step vsb=0.057



.step vsb=0.058



.step vsb=0.059



.step vsb=0.06



.step vsb=0.061



.step vsb=0.062



.step vsb=0.063



.step vsb=0.064



.step vsb=0.065



.step vsb=0.066



.step vsb=0.067



.step vsb=0.068



.step vsb=0.069



.step vsb=0.07



.step vsb=0.071



.step vsb=0.0720000000000001



.step vsb=0.0730000000000001



.step vsb=0.0740000000000001



.step vsb=0.0750000000000001



.step vsb=0.0760000000000001



.step vsb=0.0770000000000001



.step vsb=0.0780000000000001



.step vsb=0.0790000000000001



.step vsb=0.0800000000000001



.step vsb=0.0810000000000001



.step vsb=0.0820000000000001



.step vsb=0.0830000000000001



.step vsb=0.0840000000000001



.step vsb=0.0850000000000001



.step vsb=0.0860000000000001



.step vsb=0.0870000000000001



.step vsb=0.0880000000000001



.step vsb=0.0890000000000001



.step vsb=0.0900000000000001



.step vsb=0.0910000000000001



.step vsb=0.0920000000000001



.step vsb=0.0930000000000001



.step vsb=0.0940000000000001



.step vsb=0.0950000000000001



.step vsb=0.0960000000000001



.step vsb=0.0970000000000001



.step vsb=0.0980000000000001



.step vsb=0.0990000000000001



.step vsb=0.1



.step vsb=0.101



.step vsb=0.102



.step vsb=0.103



.step vsb=0.104



.step vsb=0.105



.step vsb=0.106



.step vsb=0.107



.step vsb=0.108



.step vsb=0.109



.step vsb=0.11



.step vsb=0.111



.step vsb=0.112



.step vsb=0.113



.step vsb=0.114



.step vsb=0.115



.step vsb=0.116



.step vsb=0.117



.step vsb=0.118



.step vsb=0.119



.step vsb=0.12



.step vsb=0.121



.step vsb=0.122



.step vsb=0.123



.step vsb=0.124



.step vsb=0.125



.step vsb=0.126



.step vsb=0.127



.step vsb=0.128



.step vsb=0.129



.step vsb=0.13



.step vsb=0.131



.step vsb=0.132



.step vsb=0.133



.step vsb=0.134



.step vsb=0.135



.step vsb=0.136



.step vsb=0.137



.step vsb=0.138



.step vsb=0.139



.step vsb=0.14



.step vsb=0.141



.step vsb=0.142



.step vsb=0.143



.step vsb=0.144



.step vsb=0.145



.step vsb=0.146



.step vsb=0.147



.step vsb=0.148



.step vsb=0.149



.step vsb=0.15



.step vsb=0.151



.step vsb=0.152



.step vsb=0.153



.step vsb=0.154



.step vsb=0.155



.step vsb=0.156



.step vsb=0.157



.step vsb=0.158



.step vsb=0.159



.step vsb=0.16



.step vsb=0.161



.step vsb=0.162



.step vsb=0.163



.step vsb=0.164



.step vsb=0.165



.step vsb=0.166



.step vsb=0.167



.step vsb=0.168



.step vsb=0.169



.step vsb=0.17



.step vsb=0.171



.step vsb=0.172



.step vsb=0.173



.step vsb=0.174



.step vsb=0.175



.step vsb=0.176



.step vsb=0.177



.step vsb=0.178



.step vsb=0.179



.step vsb=0.18



.step vsb=0.181



.step vsb=0.182



.step vsb=0.183



.step vsb=0.184



.step vsb=0.185



.step vsb=0.186



.step vsb=0.187



.step vsb=0.188



.step vsb=0.189



.step vsb=0.19



.step vsb=0.191



.step vsb=0.192



.step vsb=0.193



.step vsb=0.194



.step vsb=0.195



.step vsb=0.196



.step vsb=0.197



.step vsb=0.198



.step vsb=0.199



.step vsb=0.2



.step vsb=0.201



.step vsb=0.202



.step vsb=0.203



.step vsb=0.204



.step vsb=0.205



.step vsb=0.206



.step vsb=0.207



.step vsb=0.208



.step vsb=0.209



.step vsb=0.21



.step vsb=0.211



.step vsb=0.212



.step vsb=0.213



.step vsb=0.214



.step vsb=0.215



.step vsb=0.216



.step vsb=0.217



.step vsb=0.218



.step vsb=0.219



.step vsb=0.22



.step vsb=0.221



.step vsb=0.222



.step vsb=0.223



.step vsb=0.224



.step vsb=0.225



.step vsb=0.226



.step vsb=0.227



.step vsb=0.228



.step vsb=0.229



.step vsb=0.23



.step vsb=0.231



.step vsb=0.232



.step vsb=0.233



.step vsb=0.234



.step vsb=0.235



.step vsb=0.236



.step vsb=0.237



.step vsb=0.238



.step vsb=0.239



.step vsb=0.24



.step vsb=0.241



.step vsb=0.242



.step vsb=0.243



.step vsb=0.244



.step vsb=0.245



.step vsb=0.246



.step vsb=0.247



.step vsb=0.248



.step vsb=0.249



.step vsb=0.25



.step vsb=0.251



.step vsb=0.252



.step vsb=0.253



.step vsb=0.254



.step vsb=0.255



.step vsb=0.256



.step vsb=0.257



.step vsb=0.258



.step vsb=0.259



.step vsb=0.26



.step vsb=0.261



.step vsb=0.262



.step vsb=0.263



.step vsb=0.264



.step vsb=0.265



.step vsb=0.266



.step vsb=0.267



.step vsb=0.268



.step vsb=0.269



.step vsb=0.27



.step vsb=0.271



.step vsb=0.272



.step vsb=0.273



.step vsb=0.274



.step vsb=0.275



.step vsb=0.276



.step vsb=0.277



.step vsb=0.278



.step vsb=0.279



.step vsb=0.28



.step vsb=0.281



.step vsb=0.282



.step vsb=0.283



.step vsb=0.284



.step vsb=0.285



.step vsb=0.286



.step vsb=0.287



.step vsb=0.288



.step vsb=0.289



.step vsb=0.29



.step vsb=0.291



.step vsb=0.292



.step vsb=0.293



.step vsb=0.294



.step vsb=0.295



.step vsb=0.296



.step vsb=0.297



.step vsb=0.298



.step vsb=0.299



.step vsb=0.3



.step vsb=0.301



.step vsb=0.302



.step vsb=0.303



.step vsb=0.304



.step vsb=0.305



.step vsb=0.306



.step vsb=0.307



.step vsb=0.308



.step vsb=0.309



.step vsb=0.31



.step vsb=0.311



.step vsb=0.312



.step vsb=0.313



.step vsb=0.314



.step vsb=0.315



.step vsb=0.316



.step vsb=0.317



.step vsb=0.318



.step vsb=0.319



.step vsb=0.32



.step vsb=0.321



.step vsb=0.322



.step vsb=0.323



.step vsb=0.324



.step vsb=0.325



.step vsb=0.326



.step vsb=0.327



.step vsb=0.328



.step vsb=0.329



.step vsb=0.33



.step vsb=0.331



.step vsb=0.332



.step vsb=0.333



.step vsb=0.334



.step vsb=0.335



.step vsb=0.336



.step vsb=0.337



.step vsb=0.338



.step vsb=0.339



.step vsb=0.34



.step vsb=0.341



.step vsb=0.342



.step vsb=0.343



.step vsb=0.344



.step vsb=0.345



.step vsb=0.346



.step vsb=0.347



.step vsb=0.348



.step vsb=0.349



.step vsb=0.35



.step vsb=0.351



.step vsb=0.352



.step vsb=0.353



.step vsb=0.354



.step vsb=0.355



.step vsb=0.356



.step vsb=0.357



.step vsb=0.358



.step vsb=0.359



.step vsb=0.36



.step vsb=0.361



.step vsb=0.362



.step vsb=0.363



.step vsb=0.364



.step vsb=0.365



.step vsb=0.366



.step vsb=0.367



.step vsb=0.368



.step vsb=0.369



.step vsb=0.37



.step vsb=0.371



.step vsb=0.372



.step vsb=0.373



.step vsb=0.374



.step vsb=0.375



.step vsb=0.376



.step vsb=0.377



.step vsb=0.378



.step vsb=0.379



.step vsb=0.38



.step vsb=0.381



.step vsb=0.382



.step vsb=0.383



.step vsb=0.384



.step vsb=0.385



.step vsb=0.386



.step vsb=0.387



.step vsb=0.388



.step vsb=0.389



.step vsb=0.39



.step vsb=0.391



.step vsb=0.392



.step vsb=0.393



.step vsb=0.394



.step vsb=0.395



.step vsb=0.396



.step vsb=0.397



.step vsb=0.398



.step vsb=0.399



.step vsb=0.4



.step vsb=0.401



.step vsb=0.402



.step vsb=0.403



.step vsb=0.404



.step vsb=0.405



.step vsb=0.406



.step vsb=0.407



.step vsb=0.408



.step vsb=0.409



.step vsb=0.41



.step vsb=0.411



.step vsb=0.412



.step vsb=0.413



.step vsb=0.414



.step vsb=0.415



.step vsb=0.416



.step vsb=0.417



.step vsb=0.418



.step vsb=0.419



.step vsb=0.42



.step vsb=0.421



.step vsb=0.422



.step vsb=0.423



.step vsb=0.424



.step vsb=0.425



.step vsb=0.426



.step vsb=0.427



.step vsb=0.428



.step vsb=0.429



.step vsb=0.43



.step vsb=0.431



.step vsb=0.432



.step vsb=0.433



.step vsb=0.434



.step vsb=0.435



.step vsb=0.436



.step vsb=0.437



.step vsb=0.438



.step vsb=0.439



.step vsb=0.44



.step vsb=0.441



.step vsb=0.442



.step vsb=0.443



.step vsb=0.444



.step vsb=0.445



.step vsb=0.446



.step vsb=0.447



.step vsb=0.448



.step vsb=0.449



.step vsb=0.45



.step vsb=0.451



.step vsb=0.452



.step vsb=0.453



.step vsb=0.454



.step vsb=0.455



.step vsb=0.456



.step vsb=0.457



.step vsb=0.458



.step vsb=0.459



.step vsb=0.46



.step vsb=0.461



.step vsb=0.462



.step vsb=0.463



.step vsb=0.464



.step vsb=0.465



.step vsb=0.466



.step vsb=0.467



.step vsb=0.468



.step vsb=0.469



.step vsb=0.47



.step vsb=0.471



.step vsb=0.472



.step vsb=0.473



.step vsb=0.474



.step vsb=0.475



.step vsb=0.476



.step vsb=0.477



.step vsb=0.478



.step vsb=0.479



.step vsb=0.48



.step vsb=0.481



.step vsb=0.482



.step vsb=0.483



.step vsb=0.484



.step vsb=0.485



.step vsb=0.486



.step vsb=0.487



.step vsb=0.488



.step vsb=0.489



.step vsb=0.49



.step vsb=0.491



.step vsb=0.492



.step vsb=0.493



.step vsb=0.494



.step vsb=0.495



.step vsb=0.496



.step vsb=0.497



.step vsb=0.498



.step vsb=0.499



.step vsb=0.5



.step vsb=0.501



.step vsb=0.502



.step vsb=0.503



.step vsb=0.504



.step vsb=0.505



.step vsb=0.506



.step vsb=0.507



.step vsb=0.508



.step vsb=0.509



.step vsb=0.51



.step vsb=0.511



.step vsb=0.512



.step vsb=0.513



.step vsb=0.514



.step vsb=0.515



.step vsb=0.516



.step vsb=0.517



.step vsb=0.518



.step vsb=0.519



.step vsb=0.52



.step vsb=0.521



.step vsb=0.522



.step vsb=0.523



.step vsb=0.524



.step vsb=0.525



.step vsb=0.526



.step vsb=0.527



.step vsb=0.528



.step vsb=0.529



.step vsb=0.53



.step vsb=0.531



.step vsb=0.532



.step vsb=0.533



.step vsb=0.534



.step vsb=0.535



.step vsb=0.536



.step vsb=0.537



.step vsb=0.538



.step vsb=0.539



.step vsb=0.54



.step vsb=0.541



.step vsb=0.542



.step vsb=0.543



.step vsb=0.544



.step vsb=0.545



.step vsb=0.546



.step vsb=0.547



.step vsb=0.548



.step vsb=0.549



.step vsb=0.55



.step vsb=0.551



.step vsb=0.552



.step vsb=0.553



.step vsb=0.554



.step vsb=0.555



.step vsb=0.556



.step vsb=0.557



.step vsb=0.558



.step vsb=0.559



.step vsb=0.56



.step vsb=0.561



.step vsb=0.562



.step vsb=0.563



.step vsb=0.564



.step vsb=0.565



.step vsb=0.566



.step vsb=0.567



.step vsb=0.568



.step vsb=0.569



.step vsb=0.57



.step vsb=0.571



.step vsb=0.572



.step vsb=0.573



.step vsb=0.574



.step vsb=0.575



.step vsb=0.576



.step vsb=0.577



.step vsb=0.578



.step vsb=0.579



.step vsb=0.58



.step vsb=0.581



.step vsb=0.582



.step vsb=0.583



.step vsb=0.584



.step vsb=0.585



.step vsb=0.586



.step vsb=0.587



.step vsb=0.588



.step vsb=0.589



.step vsb=0.59



.step vsb=0.591



.step vsb=0.592



.step vsb=0.593



.step vsb=0.594



.step vsb=0.595



.step vsb=0.596



.step vsb=0.597



.step vsb=0.598



.step vsb=0.599



.step vsb=0.6



.step vsb=0.601



.step vsb=0.602



.step vsb=0.603



.step vsb=0.604



.step vsb=0.605



.step vsb=0.606



.step vsb=0.607



.step vsb=0.608



.step vsb=0.609



.step vsb=0.61



.step vsb=0.611



.step vsb=0.612



.step vsb=0.613



.step vsb=0.614



.step vsb=0.615



.step vsb=0.616



.step vsb=0.617



.step vsb=0.618



.step vsb=0.619



.step vsb=0.62



.step vsb=0.621



.step vsb=0.622



.step vsb=0.623



.step vsb=0.624



.step vsb=0.625



.step vsb=0.626



.step vsb=0.627



.step vsb=0.628



.step vsb=0.629



.step vsb=0.63



.step vsb=0.631



.step vsb=0.632



.step vsb=0.633



.step vsb=0.634



.step vsb=0.635



.step vsb=0.636



.step vsb=0.637



.step vsb=0.638



.step vsb=0.639



.step vsb=0.64



.step vsb=0.641



.step vsb=0.642



.step vsb=0.643



.step vsb=0.644



.step vsb=0.645



.step vsb=0.646



.step vsb=0.647



.step vsb=0.648



.step vsb=0.649



.step vsb=0.65



.step vsb=0.651



.step vsb=0.652



.step vsb=0.653



.step vsb=0.654



.step vsb=0.655



.step vsb=0.656



.step vsb=0.657



.step vsb=0.658



.step vsb=0.659



.step vsb=0.66



.step vsb=0.661



.step vsb=0.662



.step vsb=0.663



.step vsb=0.664



.step vsb=0.665



.step vsb=0.666



.step vsb=0.667



.step vsb=0.668



.step vsb=0.669



.step vsb=0.67



.step vsb=0.671



.step vsb=0.672



.step vsb=0.673



.step vsb=0.674



.step vsb=0.675



.step vsb=0.676



.step vsb=0.677



.step vsb=0.678



.step vsb=0.679



.step vsb=0.68



.step vsb=0.681



.step vsb=0.682



.step vsb=0.683



.step vsb=0.684



.step vsb=0.685



.step vsb=0.686



.step vsb=0.687



.step vsb=0.688000000000001



.step vsb=0.689000000000001



.step vsb=0.690000000000001



.step vsb=0.691000000000001



.step vsb=0.692000000000001



.step vsb=0.693000000000001



.step vsb=0.694000000000001



.step vsb=0.695000000000001



.step vsb=0.696000000000001



.step vsb=0.697000000000001



.step vsb=0.698000000000001



.step vsb=0.699000000000001



.step vsb=0.700000000000001



.step vsb=0.701000000000001



.step vsb=0.702000000000001



.step vsb=0.703000000000001



.step vsb=0.704000000000001



.step vsb=0.705000000000001



.step vsb=0.706000000000001



.step vsb=0.707000000000001



.step vsb=0.708000000000001



.step vsb=0.709000000000001



.step vsb=0.710000000000001



.step vsb=0.711000000000001



.step vsb=0.712000000000001



.step vsb=0.713000000000001



.step vsb=0.714000000000001



.step vsb=0.715000000000001



.step vsb=0.716000000000001



.step vsb=0.717000000000001



.step vsb=0.718000000000001



.step vsb=0.719000000000001



.step vsb=0.720000000000001



.step vsb=0.721000000000001



.step vsb=0.722000000000001



.step vsb=0.723000000000001



.step vsb=0.724000000000001



.step vsb=0.725000000000001



.step vsb=0.726000000000001



.step vsb=0.727000000000001



.step vsb=0.728000000000001



.step vsb=0.729000000000001



.step vsb=0.730000000000001



.step vsb=0.731000000000001



.step vsb=0.732000000000001



.step vsb=0.733000000000001



.step vsb=0.734000000000001



.step vsb=0.735000000000001



.step vsb=0.736000000000001



.step vsb=0.737000000000001



.step vsb=0.738000000000001



.step vsb=0.739000000000001



.step vsb=0.740000000000001



.step vsb=0.741000000000001



.step vsb=0.742000000000001



.step vsb=0.743000000000001



.step vsb=0.744000000000001



.step vsb=0.745000000000001



.step vsb=0.746000000000001



.step vsb=0.747000000000001



.step vsb=0.748000000000001



.step vsb=0.749000000000001



.step vsb=0.750000000000001



.step vsb=0.751000000000001



.step vsb=0.752000000000001



.step vsb=0.753000000000001



.step vsb=0.754000000000001



.step vsb=0.755000000000001



.step vsb=0.756000000000001



.step vsb=0.757000000000001



.step vsb=0.758000000000001



.step vsb=0.759000000000001



.step vsb=0.760000000000001



.step vsb=0.761000000000001



.step vsb=0.762000000000001



.step vsb=0.763000000000001



.step vsb=0.764000000000001



.step vsb=0.765000000000001



.step vsb=0.766000000000001



.step vsb=0.767000000000001



.step vsb=0.768000000000001



.step vsb=0.769000000000001



.step vsb=0.770000000000001



.step vsb=0.771000000000001



.step vsb=0.772000000000001



.step vsb=0.773000000000001



.step vsb=0.774000000000001



.step vsb=0.775000000000001



.step vsb=0.776000000000001



.step vsb=0.777000000000001



.step vsb=0.778000000000001



.step vsb=0.779000000000001



.step vsb=0.780000000000001



.step vsb=0.781000000000001



.step vsb=0.782000000000001



.step vsb=0.783000000000001



.step vsb=0.784000000000001



.step vsb=0.785000000000001



.step vsb=0.786000000000001



.step vsb=0.787000000000001



.step vsb=0.788000000000001



.step vsb=0.789000000000001



.step vsb=0.790000000000001



.step vsb=0.791000000000001



.step vsb=0.792000000000001



.step vsb=0.793000000000001



.step vsb=0.794000000000001



.step vsb=0.795000000000001



.step vsb=0.796000000000001



.step vsb=0.797000000000001



.step vsb=0.798000000000001



.step vsb=0.799000000000001



.step vsb=0.800000000000001



.step vsb=0.801000000000001



.step vsb=0.802000000000001



.step vsb=0.803000000000001



.step vsb=0.804000000000001



.step vsb=0.805000000000001



.step vsb=0.806000000000001



.step vsb=0.807000000000001



.step vsb=0.808000000000001



.step vsb=0.809000000000001



.step vsb=0.810000000000001



.step vsb=0.811000000000001



.step vsb=0.812000000000001



.step vsb=0.813000000000001



.step vsb=0.814000000000001



.step vsb=0.815000000000001



.step vsb=0.816000000000001



.step vsb=0.817000000000001



.step vsb=0.818000000000001



.step vsb=0.819000000000001



.step vsb=0.820000000000001



.step vsb=0.821000000000001



.step vsb=0.822000000000001



.step vsb=0.823000000000001



.step vsb=0.824000000000001



.step vsb=0.825000000000001



.step vsb=0.826000000000001



.step vsb=0.827000000000001



.step vsb=0.828000000000001



.step vsb=0.829000000000001



.step vsb=0.830000000000001



.step vsb=0.831000000000001



.step vsb=0.832000000000001



.step vsb=0.833000000000001



.step vsb=0.834000000000001



.step vsb=0.835000000000001



.step vsb=0.836000000000001



.step vsb=0.837000000000001



.step vsb=0.838000000000001



.step vsb=0.839000000000001



.step vsb=0.840000000000001



.step vsb=0.841000000000001



.step vsb=0.842000000000001



.step vsb=0.843000000000001



.step vsb=0.844000000000001



.step vsb=0.845000000000001



.step vsb=0.846000000000001



.step vsb=0.847000000000001



.step vsb=0.848000000000001



.step vsb=0.849000000000001



.step vsb=0.850000000000001



.step vsb=0.851000000000001



.step vsb=0.852000000000001



.step vsb=0.853000000000001



.step vsb=0.854000000000001



.step vsb=0.855000000000001



.step vsb=0.856000000000001



.step vsb=0.857000000000001



.step vsb=0.858000000000001



.step vsb=0.859000000000001



.step vsb=0.860000000000001



.step vsb=0.861000000000001



.step vsb=0.862000000000001



.step vsb=0.863000000000001



.step vsb=0.864000000000001



.step vsb=0.865000000000001



.step vsb=0.866000000000001



.step vsb=0.867000000000001



.step vsb=0.868000000000001



.step vsb=0.869000000000001



.step vsb=0.870000000000001



.step vsb=0.871000000000001



.step vsb=0.872000000000001



.step vsb=0.873000000000001



.step vsb=0.874000000000001



.step vsb=0.875000000000001



.step vsb=0.876000000000001



.step vsb=0.877000000000001



.step vsb=0.878000000000001



.step vsb=0.879000000000001



.step vsb=0.880000000000001



.step vsb=0.881000000000001



.step vsb=0.882000000000001



.step vsb=0.883000000000001



.step vsb=0.884000000000001



.step vsb=0.885000000000001



.step vsb=0.886000000000001



.step vsb=0.887000000000001



.step vsb=0.888000000000001



.step vsb=0.889000000000001



.step vsb=0.890000000000001



.step vsb=0.891000000000001



.step vsb=0.892000000000001



.step vsb=0.893000000000001



.step vsb=0.894000000000001



.step vsb=0.895000000000001



.step vsb=0.896000000000001



.step vsb=0.897000000000001



.step vsb=0.898000000000001



.step vsb=0.899000000000001



.step vsb=0.900000000000001



.step vsb=0.901000000000001



.step vsb=0.902000000000001



.step vsb=0.903000000000001



.step vsb=0.904000000000001



.step vsb=0.905000000000001



.step vsb=0.906000000000001



.step vsb=0.907000000000001



.step vsb=0.908000000000001



.step vsb=0.909000000000001



.step vsb=0.910000000000001



.step vsb=0.911000000000001



.step vsb=0.912000000000001



.step vsb=0.913000000000001



.step vsb=0.914000000000001



.step vsb=0.915000000000001



.step vsb=0.916000000000001



.step vsb=0.917000000000001



.step vsb=0.918000000000001



.step vsb=0.919000000000001



.step vsb=0.920000000000001



.step vsb=0.921000000000001



.step vsb=0.922000000000001



.step vsb=0.923000000000001



.step vsb=0.924000000000001



.step vsb=0.925000000000001



.step vsb=0.926000000000001



.step vsb=0.927000000000001



.step vsb=0.928000000000001



.step vsb=0.929000000000001



.step vsb=0.930000000000001



.step vsb=0.931000000000001



.step vsb=0.932000000000001



.step vsb=0.933000000000001



.step vsb=0.934000000000001



.step vsb=0.935000000000001



.step vsb=0.936000000000001



.step vsb=0.937000000000001



.step vsb=0.938000000000001



.step vsb=0.939000000000001



.step vsb=0.940000000000001



.step vsb=0.941000000000001



.step vsb=0.942000000000001



.step vsb=0.943000000000001



.step vsb=0.944000000000001



.step vsb=0.945000000000001



.step vsb=0.946000000000001



.step vsb=0.947000000000001



.step vsb=0.948000000000001



.step vsb=0.949000000000001



.step vsb=0.950000000000001



.step vsb=0.951000000000001



.step vsb=0.952000000000001



.step vsb=0.953000000000001



.step vsb=0.954000000000001



.step vsb=0.955000000000001



.step vsb=0.956000000000001



.step vsb=0.957000000000001



.step vsb=0.958000000000001



.step vsb=0.959000000000001



.step vsb=0.960000000000001



.step vsb=0.961000000000001



.step vsb=0.962000000000001



.step vsb=0.963000000000001



.step vsb=0.964000000000001



.step vsb=0.965000000000001



.step vsb=0.966000000000001



.step vsb=0.967000000000001



.step vsb=0.968000000000001



.step vsb=0.969000000000001



.step vsb=0.970000000000001



.step vsb=0.971000000000001



.step vsb=0.972000000000001



.step vsb=0.973000000000001



.step vsb=0.974000000000001



.step vsb=0.975000000000001



.step vsb=0.976000000000001



.step vsb=0.977000000000001



.step vsb=0.978000000000001



.step vsb=0.979000000000001



.step vsb=0.980000000000001



.step vsb=0.981000000000001



.step vsb=0.982000000000001



.step vsb=0.983000000000001



.step vsb=0.984000000000001



.step vsb=0.985000000000001



.step vsb=0.986000000000001



.step vsb=0.987000000000001



.step vsb=0.988000000000001



.step vsb=0.989000000000001



.step vsb=0.990000000000001



.step vsb=0.991000000000001



.step vsb=0.992000000000001



.step vsb=0.993000000000001



.step vsb=0.994000000000001



.step vsb=0.995000000000001



.step vsb=0.996000000000001



.step vsb=0.997000000000001



.step vsb=0.998000000000001



.step vsb=0.999000000000001
tnom = 27
temp = 27
method = modified trap
.step vsb=1


Measurement: uth
  step	v(vg)	at
     1	1.26243	0.537571
     2	1.26112	0.538879
     3	1.25981	0.540187
     4	1.25851	0.541494
     5	1.2572	0.542803
     6	1.25589	0.54411
     7	1.25458	0.545417
     8	1.25328	0.546725
     9	1.25197	0.548033
    10	1.25066	0.549339
    11	1.24935	0.550646
    12	1.24805	0.551953
    13	1.24674	0.553259
    14	1.24543	0.554566
    15	1.24413	0.555873
    16	1.24282	0.557179
    17	1.24152	0.558485
    18	1.24021	0.559791
    19	1.2389	0.561098
    20	1.2376	0.562403
    21	1.23629	0.563709
    22	1.23498	0.565015
    23	1.23368	0.56632
    24	1.23237	0.567625
    25	1.23107	0.568932
    26	1.22976	0.570236
    27	1.22846	0.571541
    28	1.22715	0.572846
    29	1.22585	0.574151
    30	1.22454	0.575456
    31	1.22324	0.57676
    32	1.22193	0.578065
    33	1.22063	0.579369
    34	1.21933	0.580673
    35	1.21802	0.581978
    36	1.21672	0.583282
    37	1.21541	0.584585
    38	1.21411	0.58589
    39	1.21281	0.587193
    40	1.2115	0.588496
    41	1.2102	0.5898
    42	1.2089	0.591104
    43	1.20759	0.592407
    44	1.20629	0.59371
    45	1.20499	0.595014
    46	1.20368	0.596316
    47	1.20238	0.597618
    48	1.20108	0.598922
    49	1.19978	0.600224
    50	1.19847	0.601526
    51	1.19717	0.602829
    52	1.19587	0.604131
    53	1.19457	0.605433
    54	1.19327	0.606735
    55	1.19196	0.608037
    56	1.19066	0.609338
    57	1.18936	0.61064
    58	1.18806	0.611942
    59	1.18676	0.613243
    60	1.18546	0.614544
    61	1.18415	0.615846
    62	1.18285	0.617147
    63	1.18155	0.618447
    64	1.18025	0.619749
    65	1.17895	0.62105
    66	1.17765	0.62235
    67	1.17635	0.62365
    68	1.17505	0.624952
    69	1.17375	0.626251
    70	1.17245	0.627551
    71	1.17115	0.628852
    72	1.16985	0.630152
    73	1.16855	0.631451
    74	1.16725	0.632751
    75	1.16595	0.634051
    76	1.16465	0.63535
    77	1.16335	0.63665
    78	1.16205	0.63795
    79	1.16075	0.639248
    80	1.15945	0.640547
    81	1.15815	0.641847
    82	1.15685	0.643146
    83	1.15556	0.644444
    84	1.15426	0.645743
    85	1.15296	0.647042
    86	1.15166	0.64834
    87	1.15036	0.649638
    88	1.14906	0.650937
    89	1.14777	0.652235
    90	1.14647	0.653532
    91	1.14517	0.654831
    92	1.14387	0.656129
    93	1.14257	0.657426
    94	1.14128	0.658724
    95	1.13998	0.660022
    96	1.13868	0.661318
    97	1.13738	0.662615
    98	1.13609	0.663913
    99	1.13479	0.66521
   100	1.13349	0.666507
   101	1.1322	0.667804
   102	1.1309	0.669101
   103	1.1296	0.670397
   104	1.12831	0.671694
   105	1.12701	0.672991
   106	1.12571	0.674286
   107	1.12442	0.675582
   108	1.12312	0.676879
   109	1.12183	0.678175
   110	1.12053	0.67947
   111	1.11923	0.680766
   112	1.11794	0.682063
   113	1.11664	0.683357
   114	1.11535	0.684653
   115	1.11405	0.685949
   116	1.11276	0.687244
   117	1.11146	0.688539
   118	1.11017	0.689834
   119	1.10887	0.691129
   120	1.10758	0.692424
   121	1.10628	0.693718
   122	1.10499	0.695014
   123	1.10369	0.696308
   124	1.1024	0.697602
   125	1.1011	0.698897
   126	1.09981	0.700191
   127	1.09852	0.701485
   128	1.09722	0.702779
   129	1.09593	0.704073
   130	1.09463	0.705366
   131	1.09334	0.70666
   132	1.09205	0.707955
   133	1.09075	0.709247
   134	1.08946	0.710541
   135	1.08817	0.711834
   136	1.08687	0.713128
   137	1.08558	0.71442
   138	1.08429	0.715713
   139	1.08299	0.717007
   140	1.0817	0.718299
   141	1.08041	0.719592
   142	1.07912	0.720885
   143	1.07782	0.722177
   144	1.07653	0.723469
   145	1.07524	0.724762
   146	1.07395	0.726054
   147	1.07265	0.727346
   148	1.07136	0.728638
   149	1.07007	0.72993
   150	1.06878	0.731222
   151	1.06749	0.732513
   152	1.0662	0.733805
   153	1.0649	0.735097
   154	1.06361	0.736387
   155	1.06232	0.737679
   156	1.06103	0.738971
   157	1.05974	0.740261
   158	1.05845	0.741552
   159	1.05716	0.742843
   160	1.05587	0.744134
   161	1.05458	0.745424
   162	1.05328	0.746715
   163	1.05199	0.748006
   164	1.0507	0.749296
   165	1.04941	0.750586
   166	1.04812	0.751877
   167	1.04683	0.753167
   168	1.04554	0.754456
   169	1.04425	0.755747
   170	1.04296	0.757037
   171	1.04167	0.758326
   172	1.04038	0.759616
   173	1.03909	0.760906
   174	1.03781	0.762195
   175	1.03652	0.763484
   176	1.03523	0.764773
   177	1.03394	0.766063
   178	1.03265	0.767351
   179	1.03136	0.76864
   180	1.03007	0.76993
   181	1.02878	0.771218
   182	1.02749	0.772506
   183	1.0262	0.773795
   184	1.02492	0.775084
   185	1.02363	0.776372
   186	1.02234	0.77766
   187	1.02105	0.778949
   188	1.01976	0.780236
   189	1.01848	0.781524
   190	1.01719	0.782812
   191	1.0159	0.7841
   192	1.01461	0.785387
   193	1.01332	0.786675
   194	1.01204	0.787963
   195	1.01075	0.78925
   196	1.00946	0.790537
   197	1.00818	0.791825
   198	1.00689	0.793112
   199	1.0056	0.794398
   200	1.00431	0.795685
   201	1.00303	0.796973
   202	1.00174	0.798259
   203	1.00045	0.799546
   204	0.999167	0.800833
   205	0.997881	0.802119
   206	0.996595	0.803405
   207	0.995309	0.804691
   208	0.994022	0.805978
   209	0.992736	0.807264
   210	0.991451	0.808549
   211	0.990164	0.809836
   212	0.988878	0.811122
   213	0.987593	0.812407
   214	0.986307	0.813693
   215	0.985021	0.814979
   216	0.983737	0.816264
   217	0.982451	0.817549
   218	0.981166	0.818834
   219	0.97988	0.82012
   220	0.978596	0.821404
   221	0.977311	0.822689
   222	0.976025	0.823975
   223	0.974741	0.825259
   224	0.973457	0.826543
   225	0.972172	0.827828
   226	0.970887	0.829113
   227	0.969603	0.830397
   228	0.968319	0.831681
   229	0.967034	0.832966
   230	0.96575	0.83425
   231	0.964466	0.835534
   232	0.963182	0.836818
   233	0.961898	0.838102
   234	0.960615	0.839385
   235	0.959331	0.840669
   236	0.958047	0.841953
   237	0.956764	0.843236
   238	0.955481	0.844519
   239	0.954197	0.845803
   240	0.952913	0.847087
   241	0.951631	0.848369
   242	0.950348	0.849652
   243	0.949064	0.850936
   244	0.947782	0.852218
   245	0.946499	0.853501
   246	0.945216	0.854784
   247	0.943933	0.856067
   248	0.942652	0.857348
   249	0.941369	0.858631
   250	0.940086	0.859914
   251	0.938804	0.861196
   252	0.937522	0.862478
   253	0.93624	0.86376
   254	0.934958	0.865042
   255	0.933676	0.866324
   256	0.932395	0.867605
   257	0.931112	0.868888
   258	0.929831	0.870169
   259	0.92855	0.87145
   260	0.927268	0.872732
   261	0.925986	0.874014
   262	0.924706	0.875294
   263	0.923425	0.876575
   264	0.922143	0.877857
   265	0.920862	0.879138
   266	0.919582	0.880418
   267	0.918301	0.881699
   268	0.917019	0.882981
   269	0.915739	0.884261
   270	0.914459	0.885541
   271	0.913178	0.886822
   272	0.911897	0.888103
   273	0.910618	0.889382
   274	0.909337	0.890663
   275	0.908057	0.891943
   276	0.906777	0.893223
   277	0.905497	0.894503
   278	0.904217	0.895783
   279	0.902937	0.897063
   280	0.901658	0.898342
   281	0.900378	0.899622
   282	0.899098	0.900902
   283	0.897819	0.902181
   284	0.89654	0.90346
   285	0.895261	0.904739
   286	0.893981	0.906019
   287	0.892702	0.907298
   288	0.891424	0.908576
   289	0.890144	0.909856
   290	0.888865	0.911135
   291	0.887587	0.912413
   292	0.886308	0.913692
   293	0.885029	0.914971
   294	0.883751	0.916249
   295	0.882473	0.917527
   296	0.881194	0.918806
   297	0.879916	0.920084
   298	0.878638	0.921362
   299	0.87736	0.92264
   300	0.876081	0.923919
   301	0.874804	0.925196
   302	0.873526	0.926474
   303	0.872248	0.927752
   304	0.87097	0.92903
   305	0.869693	0.930307
   306	0.868416	0.931584
   307	0.867138	0.932862
   308	0.865861	0.934139
   309	0.864584	0.935416
   310	0.863307	0.936693
   311	0.862029	0.937971
   312	0.860752	0.939248
   313	0.859476	0.940524
   314	0.858199	0.941801
   315	0.856921	0.943079
   316	0.855645	0.944355
   317	0.854369	0.945631
   318	0.853092	0.946908
   319	0.851816	0.948184
   320	0.85054	0.94946
   321	0.849263	0.950737
   322	0.847986	0.952014
   323	0.846711	0.953289
   324	0.845435	0.954565
   325	0.844159	0.955841
   326	0.842883	0.957117
   327	0.841608	0.958392
   328	0.840332	0.959668
   329	0.839056	0.960944
   330	0.837781	0.962219
   331	0.836505	0.963495
   332	0.83523	0.96477
   333	0.833954	0.966046
   334	0.83268	0.96732
   335	0.831404	0.968595
   336	0.830129	0.969871
   337	0.828854	0.971146
   338	0.82758	0.97242
   339	0.826305	0.973695
   340	0.825029	0.974971
   341	0.823755	0.976245
   342	0.822481	0.977519
   343	0.821206	0.978794
   344	0.819931	0.980069
   345	0.818658	0.981342
   346	0.817384	0.982616
   347	0.816109	0.983891
   348	0.814835	0.985165
   349	0.813561	0.986439
   350	0.812287	0.987713
   351	0.811013	0.988987
   352	0.80974	0.99026
   353	0.808466	0.991534
   354	0.807192	0.992808
   355	0.805918	0.994081
   356	0.804646	0.995354
   357	0.803372	0.996628
   358	0.802098	0.997901
   359	0.800826	0.999174
   360	0.799553	1.00045
   361	0.79828	1.00172
   362	0.797006	1.00299
   363	0.795734	1.00427
   364	0.794461	1.00554
   365	0.793188	1.00681
   366	0.791915	1.00808
   367	0.790643	1.00936
   368	0.789371	1.01063
   369	0.788098	1.0119
   370	0.786826	1.01317
   371	0.785554	1.01445
   372	0.784281	1.01572
   373	0.783008	1.01699
   374	0.781737	1.01826
   375	0.780465	1.01953
   376	0.779193	1.02081
   377	0.777921	1.02208
   378	0.77665	1.02335
   379	0.775378	1.02462
   380	0.774106	1.02589
   381	0.772835	1.02717
   382	0.771564	1.02844
   383	0.770292	1.02971
   384	0.76902	1.03098
   385	0.76775	1.03225
   386	0.766479	1.03352
   387	0.765208	1.03479
   388	0.763936	1.03606
   389	0.762666	1.03733
   390	0.761395	1.0386
   391	0.760124	1.03988
   392	0.758853	1.04115
   393	0.757583	1.04242
   394	0.756313	1.04369
   395	0.755042	1.04496
   396	0.753772	1.04623
   397	0.752502	1.0475
   398	0.751231	1.04877
   399	0.749961	1.05004
   400	0.748691	1.05131
   401	0.747421	1.05258
   402	0.746151	1.05385
   403	0.744881	1.05512
   404	0.743612	1.05639
   405	0.742342	1.05766
   406	0.741072	1.05893
   407	0.739803	1.0602
   408	0.738534	1.06147
   409	0.737264	1.06274
   410	0.735994	1.06401
   411	0.734726	1.06527
   412	0.733457	1.06654
   413	0.732187	1.06781
   414	0.730918	1.06908
   415	0.729649	1.07035
   416	0.72838	1.07162
   417	0.727111	1.07289
   418	0.725843	1.07416
   419	0.724574	1.07543
   420	0.723306	1.07669
   421	0.722036	1.07796
   422	0.720769	1.07923
   423	0.7195	1.0805
   424	0.718232	1.08177
   425	0.716963	1.08304
   426	0.715696	1.0843
   427	0.714428	1.08557
   428	0.713159	1.08684
   429	0.711891	1.08811
   430	0.710624	1.08938
   431	0.709356	1.09064
   432	0.708088	1.09191
   433	0.70682	1.09318
   434	0.705553	1.09445
   435	0.704285	1.09571
   436	0.703017	1.09698
   437	0.701751	1.09825
   438	0.700484	1.09952
   439	0.699216	1.10078
   440	0.697948	1.10205
   441	0.696682	1.10332
   442	0.695415	1.10458
   443	0.694148	1.10585
   444	0.692881	1.10712
   445	0.691614	1.10839
   446	0.690348	1.10965
   447	0.68908	1.11092
   448	0.687814	1.11219
   449	0.686548	1.11345
   450	0.685281	1.11472
   451	0.684014	1.11599
   452	0.682749	1.11725
   453	0.681483	1.11852
   454	0.680216	1.11978
   455	0.678949	1.12105
   456	0.677684	1.12232
   457	0.676418	1.12358
   458	0.675152	1.12485
   459	0.673886	1.12611
   460	0.672621	1.12738
   461	0.671355	1.12865
   462	0.670089	1.12991
   463	0.668823	1.13118
   464	0.667558	1.13244
   465	0.666293	1.13371
   466	0.665027	1.13497
   467	0.663762	1.13624
   468	0.662497	1.1375
   469	0.661232	1.13877
   470	0.659966	1.14003
   471	0.658702	1.1413
   472	0.657437	1.14256
   473	0.656172	1.14383
   474	0.654906	1.14509
   475	0.653642	1.14636
   476	0.652378	1.14762
   477	0.651112	1.14889
   478	0.649848	1.15015
   479	0.648584	1.15142
   480	0.647319	1.15268
   481	0.646054	1.15395
   482	0.644791	1.15521
   483	0.643527	1.15647
   484	0.642262	1.15774
   485	0.640997	1.159
   486	0.639734	1.16027
   487	0.63847	1.16153
   488	0.637206	1.16279
   489	0.635942	1.16406
   490	0.634679	1.16532
   491	0.633415	1.16658
   492	0.632151	1.16785
   493	0.630887	1.16911
   494	0.629624	1.17038
   495	0.628361	1.17164
   496	0.627097	1.1729
   497	0.625834	1.17417
   498	0.624571	1.17543
   499	0.623308	1.17669
   500	0.622044	1.17796
   501	0.620781	1.17922
   502	0.619519	1.18048
   503	0.618255	1.18174
   504	0.616992	1.18301
   505	0.61573	1.18427
   506	0.614467	1.18553
   507	0.613204	1.1868
   508	0.611941	1.18806
   509	0.610679	1.18932
   510	0.609417	1.19058
   511	0.608154	1.19185
   512	0.606891	1.19311
   513	0.60563	1.19437
   514	0.604367	1.19563
   515	0.603105	1.1969
   516	0.601843	1.19816
   517	0.600581	1.19942
   518	0.599319	1.20068
   519	0.598056	1.20194
   520	0.596795	1.20321
   521	0.595533	1.20447
   522	0.594271	1.20573
   523	0.593009	1.20699
   524	0.591748	1.20825
   525	0.590486	1.20951
   526	0.589225	1.21078
   527	0.587963	1.21204
   528	0.586702	1.2133
   529	0.585441	1.21456
   530	0.584179	1.21582
   531	0.582917	1.21708
   532	0.581657	1.21834
   533	0.580396	1.2196
   534	0.579134	1.22087
   535	0.577873	1.22213
   536	0.576613	1.22339
   537	0.575352	1.22465
   538	0.57409	1.22591
   539	0.57283	1.22717
   540	0.571569	1.22843
   541	0.570308	1.22969
   542	0.569047	1.23095
   543	0.567787	1.23221
   544	0.566527	1.23347
   545	0.565266	1.23473
   546	0.564005	1.23599
   547	0.562745	1.23725
   548	0.561485	1.23851
   549	0.560225	1.23978
   550	0.558964	1.24104
   551	0.557705	1.2423
   552	0.556445	1.24356
   553	0.555184	1.24482
   554	0.553924	1.24608
   555	0.552665	1.24734
   556	0.551405	1.2486
   557	0.550144	1.24986
   558	0.548885	1.25112
   559	0.547625	1.25237
   560	0.546366	1.25363
   561	0.545106	1.25489
   562	0.543846	1.25615
   563	0.542587	1.25741
   564	0.541327	1.25867
   565	0.540067	1.25993
   566	0.538808	1.26119
   567	0.537549	1.26245
   568	0.53629	1.26371
   569	0.53503	1.26497
   570	0.533771	1.26623
   571	0.532513	1.26749
   572	0.531253	1.26875
   573	0.529993	1.27001
   574	0.528735	1.27126
   575	0.527476	1.27252
   576	0.526217	1.27378
   577	0.524958	1.27504
   578	0.5237	1.2763
   579	0.522441	1.27756
   580	0.521182	1.27882
   581	0.519923	1.28008
   582	0.518665	1.28134
   583	0.517406	1.28259
   584	0.516147	1.28385
   585	0.514889	1.28511
   586	0.513631	1.28637
   587	0.512372	1.28763
   588	0.511113	1.28889
   589	0.509855	1.29014
   590	0.508597	1.2914
   591	0.507339	1.29266
   592	0.50608	1.29392
   593	0.504822	1.29518
   594	0.503564	1.29644
   595	0.502306	1.29769
   596	0.501047	1.29895
   597	0.49979	1.30021
   598	0.498532	1.30147
   599	0.497274	1.30273
   600	0.496015	1.30398
   601	0.494758	1.30524
   602	0.4935	1.3065
   603	0.492242	1.30776
   604	0.490983	1.30902
   605	0.489726	1.31027
   606	0.488469	1.31153
   607	0.487211	1.31279
   608	0.485952	1.31405
   609	0.484695	1.3153
   610	0.483438	1.31656
   611	0.48218	1.31782
   612	0.480922	1.31908
   613	0.479665	1.32034
   614	0.478407	1.32159
   615	0.477149	1.32285
   616	0.475892	1.32411
   617	0.474635	1.32537
   618	0.473377	1.32662
   619	0.472119	1.32788
   620	0.470862	1.32914
   621	0.469605	1.3304
   622	0.468347	1.33165
   623	0.467089	1.33291
   624	0.465832	1.33417
   625	0.464575	1.33542
   626	0.463318	1.33668
   627	0.46206	1.33794
   628	0.460803	1.3392
   629	0.459546	1.34045
   630	0.458288	1.34171
   631	0.45703	1.34297
   632	0.455773	1.34423
   633	0.454516	1.34548
   634	0.453259	1.34674
   635	0.452001	1.348
   636	0.450744	1.34926
   637	0.449487	1.35051
   638	0.448229	1.35177
   639	0.446971	1.35303
   640	0.445715	1.35429
   641	0.444457	1.35554
   642	0.4432	1.3568
   643	0.441942	1.35806
   644	0.440685	1.35932
   645	0.439428	1.36057
   646	0.43817	1.36183
   647	0.436912	1.36309
   648	0.435655	1.36434
   649	0.434398	1.3656
   650	0.43314	1.36686
   651	0.431882	1.36812
   652	0.430625	1.36938
   653	0.429367	1.37063
   654	0.428109	1.37189
   655	0.426851	1.37315
   656	0.425594	1.37441
   657	0.424336	1.37566
   658	0.423077	1.37692
   659	0.42182	1.37818
   660	0.420562	1.37944
   661	0.419304	1.3807
   662	0.418045	1.38195
   663	0.416787	1.38321
   664	0.41553	1.38447
   665	0.414271	1.38573
   666	0.413012	1.38699
   667	0.411754	1.38825
   668	0.410496	1.3895
   669	0.409237	1.39076
   670	0.407978	1.39202
   671	0.406719	1.39328
   672	0.405461	1.39454
   673	0.404201	1.3958
   674	0.402942	1.39706
   675	0.401683	1.39832
   676	0.400424	1.39958
   677	0.399164	1.40084
   678	0.397904	1.4021
   679	0.396645	1.40335
   680	0.395385	1.40461
   681	0.394125	1.40588
   682	0.392865	1.40714
   683	0.391605	1.4084
   684	0.390344	1.40966
   685	0.389083	1.41092
   686	0.387822	1.41218
   687	0.386562	1.41344
   688	0.3853	1.4147
   689	0.384038	1.41596
   690	0.382777	1.41722
   691	0.381516	1.41848
   692	0.380254	1.41975
   693	0.378991	1.42101
   694	0.377729	1.42227
   695	0.376466	1.42353
   696	0.375203	1.4248
   697	0.373939	1.42606
   698	0.372676	1.42732
   699	0.371412	1.42859
   700	0.370148	1.42985
   701	0.368883	1.43112
   702	0.367619	1.43238
   703	0.366354	1.43365
   704	0.365088	1.43491
   705	0.363822	1.43618
   706	0.362556	1.43744
   707	0.361289	1.43871
   708	0.360022	1.43998
   709	0.358755	1.44125
   710	0.357487	1.44251
   711	0.356218	1.44378
   712	0.354949	1.44505
   713	0.35368	1.44632
   714	0.352411	1.44759
   715	0.35114	1.44886
   716	0.349869	1.45013
   717	0.348598	1.4514
   718	0.347326	1.45267
   719	0.346052	1.45395
   720	0.344779	1.45522
   721	0.343505	1.45649
   722	0.34223	1.45777
   723	0.340954	1.45905
   724	0.339679	1.46032
   725	0.338402	1.4616
   726	0.337123	1.46288
   727	0.335845	1.46416
   728	0.334566	1.46543
   729	0.333285	1.46672
   730	0.332003	1.468
   731	0.330721	1.46928
   732	0.329438	1.47056
   733	0.328153	1.47185
   734	0.326867	1.47313
   735	0.32558	1.47442
   736	0.324292	1.47571
   737	0.323002	1.477
   738	0.321712	1.47829
   739	0.32042	1.47958
   740	0.319127	1.48087
   741	0.317832	1.48217
   742	0.316536	1.48346
   743	0.315237	1.48476
   744	0.313937	1.48606
   745	0.312637	1.48736
   746	0.311333	1.48867
   747	0.310028	1.48997
   748	0.308721	1.49128
   749	0.307412	1.49259
   750	0.306101	1.4939
   751	0.304788	1.49521
   752	0.303472	1.49653
   753	0.302154	1.49785
   754	0.300834	1.49917
   755	0.299511	1.50049
   756	0.298185	1.50182
   757	0.296856	1.50314
   758	0.295525	1.50447
   759	0.294191	1.50581
   760	0.292853	1.50715
   761	0.291513	1.50849
   762	0.290168	1.50983
   763	0.28882	1.51118
   764	0.287469	1.51253
   765	0.286114	1.51389
   766	0.284755	1.51525
   767	0.283392	1.51661
   768	0.282024	1.51798
   769	0.280652	1.51935
   770	0.279275	1.52072
   771	0.277894	1.52211
   772	0.276507	1.52349
   773	0.275115	1.52488
   774	0.273718	1.52628
   775	0.272316	1.52768
   776	0.270907	1.52909
   777	0.269492	1.53051
   778	0.268071	1.53193
   779	0.266644	1.53336
   780	0.265209	1.53479
   781	0.263768	1.53623
   782	0.262319	1.53768
   783	0.260862	1.53914
   784	0.259398	1.5406
   785	0.257926	1.54207
   786	0.256445	1.54355
   787	0.254955	1.54505
   788	0.253456	1.54654
   789	0.251948	1.54805
   790	0.25043	1.54957
   791	0.248901	1.5511
   792	0.247363	1.55264
   793	0.245813	1.55419
   794	0.244251	1.55575
   795	0.242678	1.55732
   796	0.241093	1.55891
   797	0.239496	1.5605
   798	0.237885	1.56212
   799	0.23626	1.56374
   800	0.234622	1.56538
   801	0.232969	1.56703
   802	0.231301	1.5687
   803	0.229618	1.57038
   804	0.227918	1.57208
   805	0.226202	1.5738
   806	0.224468	1.57553
   807	0.222716	1.57728
   808	0.220946	1.57905
   809	0.219157	1.58084
   810	0.217347	1.58265
   811	0.215517	1.58448
   812	0.213666	1.58633
   813	0.211792	1.58821
   814	0.209895	1.5901
   815	0.207974	1.59203
   816	0.206029	1.59397
   817	0.204058	1.59594
   818	0.20206	1.59794
   819	0.200035	1.59997
   820	0.19798	1.60202
   821	0.195896	1.6041
   822	0.193782	1.60622
   823	0.191634	1.60837
   824	0.189454	1.61055
   825	0.187238	1.61276
   826	0.184986	1.61501
   827	0.182696	1.6173
   828	0.180367	1.61963
   829	0.177997	1.622
   830	0.175584	1.62442
   831	0.173127	1.62687
   832	0.170623	1.62938
   833	0.16807	1.63193
   834	0.165467	1.63453
   835	0.16281	1.63719
   836	0.160098	1.6399
   837	0.157327	1.64267
   838	0.154495	1.6455
   839	0.151599	1.6484
   840	0.148636	1.65136
   841	0.145602	1.6544
   842	0.142493	1.65751
   843	0.139307	1.66069
   844	0.136037	1.66396
   845	0.132681	1.66732
   846	0.129232	1.67077
   847	0.125686	1.67431
   848	0.122038	1.67796
   849	0.11828	1.68172
   850	0.114406	1.68559
   851	0.11041	1.68959
   852	0.106282	1.69372
   853	0.102016	1.69798
   854	0.0976007	1.7024
   855	0.0930268	1.70697
   856	0.088283	1.71172
   857	0.0833571	1.71664
   858	0.0782358	1.72176
   859	0.0729042	1.7271
   860	0.0673461	1.73265
   861	0.0615435	1.73846
   862	0.0554763	1.74452
   863	0.0491222	1.75088
   864	0.0424566	1.75754
   865	0.0354515	1.76455
   866	0.028076	1.77192
   867	0.020295	1.7797
   868	0.012069	1.78793
   869	0.00335319	1.79665
   870	-0.00590326	1.8059
   871	-0.0157585	1.81576
   872	-0.0262791	1.82628
   873	-0.0375416	1.83754
   874	-0.0496347	1.84963
   875	-0.0626616	1.86266
   876	-0.0767427	1.87674
   877	-0.0920198	1.89202
   878	-0.108661	1.90866
   879	-0.126867	1.92687
   880	-0.146879	1.94688
   881	-0.16899	1.96899
   882	-0.193559	1.99356
   883	0	0
   884	0	0
   885	0	0
   886	0	0
   887	0	0
   888	0	0
   889	0	0
   890	0	0
   891	0	0
   892	0	0
   893	0	0
   894	0	0
   895	0	0
   896	0	0
   897	0	0
   898	0	0
   899	0	0
   900	0	0
   901	0	0
   902	0	0
   903	0	0
   904	0	0
   905	0	0
   906	0	0
   907	0	0
   908	0	0
   909	0	0
   910	0	0
   911	0	0
   912	0	0
   913	0	0
   914	0	0
   915	0	0
   916	0	0
   917	0	0
   918	0	0
   919	0	0
   920	0	0
   921	0	0
   922	0	0
   923	0	0
   924	0	0
   925	0	0
   926	0	0
   927	0	0
   928	0	0
   929	0	0
   930	0	0
   931	0	0
   932	0	0
   933	0	0
   934	0	0
   935	0	0
   936	0	0
   937	0	0
   938	0	0
   939	0	0
   940	0	0
   941	0	0
   942	0	0
   943	0	0
   944	0	0
   945	0	0
   946	0	0
   947	0	0
   948	0	0
   949	0	0
   950	0	0
   951	0	0
   952	0	0
   953	0	0
   954	0	0
   955	0	0
   956	0	0
   957	0	0
   958	0	0
   959	0	0
   960	0	0
   961	0	0
   962	0	0
   963	0	0
   964	0	0
   965	0	0
   966	0	0
   967	0	0
   968	0	0
   969	0	0
   970	0	0
   971	0	0
   972	0	0
   973	0	0
   974	0	0
   975	0	0
   976	0	0
   977	0	0
   978	0	0
   979	0	0
   980	0	0
   981	0	0
   982	0	0
   983	0	0
   984	0	0
   985	0	0
   986	0	0
   987	0	0
   988	0	0
   989	0	0
   990	0	0
   991	0	0
   992	0	0
   993	0	0
   994	0	0
   995	0	0
   996	0	0
   997	0	0
   998	0	0
   999	0	0
  1000	0	0
  1001	0	0

Total elapsed time: 246.632 seconds.

