LTspice 24.0.9 for Windows
Circuit: * C:\Users\TVavrinec\Documents\skola\NAO\lab-1\sim\Draft4P.asc
Start Time: Wed Feb 28 12:59:04 2024
solver = Normal
Maximum thread count: 16



Warning: Pd = 0 is less than W.
Warning: Ps = 0 is less than W.
.step lset=1e-07



.step lset=1.2e-07



.step lset=1.4e-07



.step lset=1.6e-07



.step lset=1.8e-07



.step lset=2e-07



.step lset=2.2e-07



.step lset=2.4e-07



.step lset=2.6e-07



.step lset=2.8e-07



.step lset=3e-07



.step lset=3.2e-07



.step lset=3.4e-07



.step lset=3.6e-07



.step lset=3.8e-07



.step lset=4e-07



.step lset=4.2e-07



.step lset=4.4e-07



.step lset=4.6e-07



.step lset=4.8e-07



.step lset=5e-07



.step lset=5.2e-07



.step lset=5.4e-07



.step lset=5.6e-07



.step lset=5.8e-07



.step lset=6e-07



.step lset=6.2e-07



.step lset=6.4e-07



.step lset=6.6e-07



.step lset=6.8e-07



.step lset=7e-07



.step lset=7.2e-07



.step lset=7.4e-07



.step lset=7.6e-07



.step lset=7.8e-07



.step lset=8e-07



.step lset=8.20000000000001e-07



.step lset=8.40000000000001e-07



.step lset=8.60000000000001e-07



.step lset=8.80000000000001e-07



.step lset=9.00000000000001e-07



.step lset=9.20000000000001e-07



.step lset=9.40000000000001e-07



.step lset=9.60000000000001e-07



.step lset=9.80000000000001e-07



.step lset=1e-06



.step lset=1.02e-06



.step lset=1.04e-06



.step lset=1.06e-06



.step lset=1.08e-06



.step lset=1.1e-06



.step lset=1.12e-06



.step lset=1.14e-06



.step lset=1.16e-06



.step lset=1.18e-06



.step lset=1.2e-06



.step lset=1.22e-06



.step lset=1.24e-06



.step lset=1.26e-06



.step lset=1.28e-06



.step lset=1.3e-06



.step lset=1.32e-06



.step lset=1.34e-06



.step lset=1.36e-06



.step lset=1.38e-06



.step lset=1.4e-06



.step lset=1.42e-06



.step lset=1.44e-06



.step lset=1.46e-06



.step lset=1.48e-06



.step lset=1.5e-06



.step lset=1.52e-06



.step lset=1.54e-06



.step lset=1.56e-06



.step lset=1.58e-06



.step lset=1.6e-06



.step lset=1.62e-06



.step lset=1.64e-06



.step lset=1.66e-06



.step lset=1.68e-06



.step lset=1.7e-06



.step lset=1.72e-06



.step lset=1.74e-06



.step lset=1.76e-06



.step lset=1.78e-06



.step lset=1.8e-06



.step lset=1.82e-06



.step lset=1.84e-06



.step lset=1.86e-06



.step lset=1.88e-06



.step lset=1.9e-06



.step lset=1.92e-06



.step lset=1.94e-06



.step lset=1.96e-06



.step lset=1.98e-06



.step lset=2e-06



.step lset=2.02e-06



.step lset=2.04e-06



.step lset=2.06e-06



.step lset=2.08e-06



.step lset=2.1e-06



.step lset=2.12e-06



.step lset=2.14e-06



.step lset=2.16e-06



.step lset=2.18e-06



.step lset=2.2e-06



.step lset=2.22e-06



.step lset=2.24e-06



.step lset=2.26e-06



.step lset=2.28e-06



.step lset=2.3e-06



.step lset=2.32e-06



.step lset=2.34e-06



.step lset=2.36e-06



.step lset=2.38e-06



.step lset=2.4e-06



.step lset=2.42e-06



.step lset=2.44e-06



.step lset=2.46e-06



.step lset=2.48e-06



.step lset=2.5e-06



.step lset=2.52e-06



.step lset=2.54e-06



.step lset=2.56e-06



.step lset=2.58e-06



.step lset=2.6e-06



.step lset=2.61999999999999e-06



.step lset=2.63999999999999e-06



.step lset=2.65999999999999e-06



.step lset=2.67999999999999e-06



.step lset=2.69999999999999e-06



.step lset=2.71999999999999e-06



.step lset=2.73999999999999e-06



.step lset=2.75999999999999e-06



.step lset=2.77999999999999e-06



.step lset=2.79999999999999e-06



.step lset=2.81999999999999e-06



.step lset=2.83999999999999e-06



.step lset=2.85999999999999e-06



.step lset=2.87999999999999e-06



.step lset=2.89999999999999e-06



.step lset=2.91999999999999e-06



.step lset=2.93999999999999e-06



.step lset=2.95999999999999e-06



.step lset=2.97999999999999e-06



.step lset=2.99999999999999e-06



.step lset=3.01999999999999e-06



.step lset=3.03999999999999e-06



.step lset=3.05999999999999e-06



.step lset=3.07999999999999e-06



.step lset=3.09999999999999e-06



.step lset=3.11999999999999e-06



.step lset=3.13999999999999e-06



.step lset=3.15999999999999e-06



.step lset=3.17999999999999e-06



.step lset=3.19999999999999e-06



.step lset=3.21999999999999e-06



.step lset=3.23999999999999e-06



.step lset=3.25999999999999e-06



.step lset=3.27999999999999e-06



.step lset=3.29999999999999e-06



.step lset=3.31999999999999e-06



.step lset=3.33999999999999e-06



.step lset=3.35999999999999e-06



.step lset=3.37999999999999e-06



.step lset=3.39999999999999e-06



.step lset=3.41999999999999e-06



.step lset=3.43999999999999e-06



.step lset=3.45999999999999e-06



.step lset=3.47999999999999e-06



.step lset=3.49999999999999e-06



.step lset=3.51999999999999e-06



.step lset=3.53999999999999e-06



.step lset=3.55999999999999e-06



.step lset=3.57999999999999e-06



.step lset=3.59999999999999e-06



.step lset=3.61999999999999e-06



.step lset=3.63999999999999e-06



.step lset=3.65999999999998e-06



.step lset=3.67999999999998e-06



.step lset=3.69999999999998e-06



.step lset=3.71999999999998e-06



.step lset=3.73999999999998e-06



.step lset=3.75999999999998e-06



.step lset=3.77999999999998e-06



.step lset=3.79999999999998e-06



.step lset=3.81999999999998e-06



.step lset=3.83999999999998e-06



.step lset=3.85999999999998e-06



.step lset=3.87999999999998e-06



.step lset=3.89999999999998e-06



.step lset=3.91999999999998e-06



.step lset=3.93999999999998e-06



.step lset=3.95999999999998e-06



.step lset=3.97999999999998e-06



.step lset=3.99999999999998e-06



.step lset=4.01999999999998e-06



.step lset=4.03999999999998e-06



.step lset=4.05999999999998e-06



.step lset=4.07999999999998e-06



.step lset=4.09999999999998e-06



.step lset=4.11999999999998e-06



.step lset=4.13999999999998e-06



.step lset=4.15999999999998e-06



.step lset=4.17999999999998e-06



.step lset=4.19999999999998e-06



.step lset=4.21999999999998e-06



.step lset=4.23999999999998e-06



.step lset=4.25999999999998e-06



.step lset=4.27999999999998e-06



.step lset=4.29999999999998e-06



.step lset=4.31999999999998e-06



.step lset=4.33999999999998e-06



.step lset=4.35999999999998e-06



.step lset=4.37999999999998e-06



.step lset=4.39999999999998e-06



.step lset=4.41999999999998e-06



.step lset=4.43999999999998e-06



.step lset=4.45999999999998e-06



.step lset=4.47999999999998e-06



.step lset=4.49999999999998e-06



.step lset=4.51999999999998e-06



.step lset=4.53999999999998e-06



.step lset=4.55999999999998e-06



.step lset=4.57999999999998e-06



.step lset=4.59999999999998e-06



.step lset=4.61999999999998e-06



.step lset=4.63999999999998e-06



.step lset=4.65999999999998e-06



.step lset=4.67999999999998e-06



.step lset=4.69999999999998e-06



.step lset=4.71999999999998e-06



.step lset=4.73999999999997e-06



.step lset=4.75999999999997e-06



.step lset=4.77999999999997e-06



.step lset=4.79999999999997e-06



.step lset=4.81999999999997e-06



.step lset=4.83999999999997e-06



.step lset=4.85999999999997e-06



.step lset=4.87999999999997e-06



.step lset=4.89999999999997e-06



.step lset=4.91999999999997e-06



.step lset=4.93999999999997e-06



.step lset=4.95999999999997e-06



.step lset=4.97999999999997e-06



.step lset=4.99999999999997e-06



.step lset=5.01999999999997e-06



.step lset=5.03999999999997e-06



.step lset=5.05999999999997e-06



.step lset=5.07999999999997e-06



.step lset=5.09999999999997e-06



.step lset=5.11999999999997e-06



.step lset=5.13999999999997e-06



.step lset=5.15999999999997e-06



.step lset=5.17999999999997e-06



.step lset=5.19999999999997e-06



.step lset=5.21999999999997e-06



.step lset=5.23999999999997e-06



.step lset=5.25999999999997e-06



.step lset=5.27999999999997e-06



.step lset=5.29999999999997e-06



.step lset=5.31999999999997e-06



.step lset=5.33999999999997e-06



.step lset=5.35999999999997e-06



.step lset=5.37999999999997e-06



.step lset=5.39999999999997e-06



.step lset=5.41999999999997e-06



.step lset=5.43999999999997e-06



.step lset=5.45999999999997e-06



.step lset=5.47999999999997e-06



.step lset=5.49999999999997e-06



.step lset=5.51999999999997e-06



.step lset=5.53999999999997e-06



.step lset=5.55999999999997e-06



.step lset=5.57999999999997e-06



.step lset=5.59999999999997e-06



.step lset=5.61999999999997e-06



.step lset=5.63999999999997e-06



.step lset=5.65999999999997e-06



.step lset=5.67999999999997e-06



.step lset=5.69999999999997e-06



.step lset=5.71999999999997e-06



.step lset=5.73999999999997e-06



.step lset=5.75999999999997e-06



.step lset=5.77999999999996e-06



.step lset=5.79999999999996e-06



.step lset=5.81999999999996e-06



.step lset=5.83999999999996e-06



.step lset=5.85999999999996e-06



.step lset=5.87999999999996e-06



.step lset=5.89999999999996e-06



.step lset=5.91999999999996e-06



.step lset=5.93999999999996e-06



.step lset=5.95999999999996e-06



.step lset=5.97999999999996e-06



.step lset=5.99999999999996e-06



.step lset=6.01999999999996e-06



.step lset=6.03999999999996e-06



.step lset=6.05999999999996e-06



.step lset=6.07999999999996e-06



.step lset=6.09999999999996e-06



.step lset=6.11999999999996e-06



.step lset=6.13999999999996e-06



.step lset=6.15999999999996e-06



.step lset=6.17999999999996e-06



.step lset=6.19999999999996e-06



.step lset=6.21999999999996e-06



.step lset=6.23999999999996e-06



.step lset=6.25999999999996e-06



.step lset=6.27999999999996e-06



.step lset=6.29999999999996e-06



.step lset=6.31999999999996e-06



.step lset=6.33999999999996e-06



.step lset=6.35999999999996e-06



.step lset=6.37999999999996e-06



.step lset=6.39999999999996e-06



.step lset=6.41999999999996e-06



.step lset=6.43999999999996e-06



.step lset=6.45999999999996e-06



.step lset=6.47999999999996e-06



.step lset=6.49999999999996e-06



.step lset=6.51999999999996e-06



.step lset=6.53999999999996e-06



.step lset=6.55999999999996e-06



.step lset=6.57999999999996e-06



.step lset=6.59999999999996e-06



.step lset=6.61999999999996e-06



.step lset=6.63999999999996e-06



.step lset=6.65999999999996e-06



.step lset=6.67999999999996e-06



.step lset=6.69999999999996e-06



.step lset=6.71999999999996e-06



.step lset=6.73999999999996e-06



.step lset=6.75999999999996e-06



.step lset=6.77999999999996e-06



.step lset=6.79999999999996e-06



.step lset=6.81999999999996e-06



.step lset=6.83999999999995e-06



.step lset=6.85999999999995e-06



.step lset=6.87999999999995e-06



.step lset=6.89999999999995e-06



.step lset=6.91999999999995e-06



.step lset=6.93999999999995e-06



.step lset=6.95999999999995e-06



.step lset=6.97999999999995e-06



.step lset=6.99999999999995e-06



.step lset=7.01999999999995e-06



.step lset=7.03999999999995e-06



.step lset=7.05999999999995e-06



.step lset=7.07999999999995e-06



.step lset=7.09999999999995e-06



.step lset=7.11999999999995e-06



.step lset=7.13999999999995e-06



.step lset=7.15999999999995e-06



.step lset=7.17999999999995e-06



.step lset=7.19999999999995e-06



.step lset=7.21999999999995e-06



.step lset=7.23999999999995e-06



.step lset=7.25999999999995e-06



.step lset=7.27999999999995e-06



.step lset=7.29999999999995e-06



.step lset=7.31999999999995e-06



.step lset=7.33999999999995e-06



.step lset=7.35999999999995e-06



.step lset=7.37999999999995e-06



.step lset=7.39999999999995e-06



.step lset=7.41999999999995e-06



.step lset=7.43999999999995e-06



.step lset=7.45999999999995e-06



.step lset=7.47999999999995e-06



.step lset=7.49999999999995e-06



.step lset=7.51999999999995e-06



.step lset=7.53999999999995e-06



.step lset=7.55999999999995e-06



.step lset=7.57999999999995e-06



.step lset=7.59999999999995e-06



.step lset=7.61999999999995e-06



.step lset=7.63999999999995e-06



.step lset=7.65999999999995e-06



.step lset=7.67999999999995e-06



.step lset=7.69999999999995e-06



.step lset=7.71999999999995e-06



.step lset=7.73999999999995e-06



.step lset=7.75999999999995e-06



.step lset=7.77999999999995e-06



.step lset=7.79999999999995e-06



.step lset=7.81999999999995e-06



.step lset=7.83999999999995e-06



.step lset=7.85999999999995e-06



.step lset=7.87999999999994e-06



.step lset=7.89999999999994e-06



.step lset=7.91999999999994e-06



.step lset=7.93999999999994e-06



.step lset=7.95999999999994e-06



.step lset=7.97999999999994e-06



.step lset=7.99999999999994e-06



.step lset=8.01999999999994e-06



.step lset=8.03999999999994e-06



.step lset=8.05999999999994e-06



.step lset=8.07999999999994e-06



.step lset=8.09999999999994e-06



.step lset=8.11999999999994e-06



.step lset=8.13999999999994e-06



.step lset=8.15999999999994e-06



.step lset=8.17999999999994e-06



.step lset=8.19999999999994e-06



.step lset=8.21999999999994e-06



.step lset=8.23999999999994e-06



.step lset=8.25999999999994e-06



.step lset=8.27999999999994e-06



.step lset=8.29999999999994e-06



.step lset=8.31999999999994e-06



.step lset=8.33999999999994e-06



.step lset=8.35999999999994e-06



.step lset=8.37999999999994e-06



.step lset=8.39999999999994e-06



.step lset=8.41999999999994e-06



.step lset=8.43999999999994e-06



.step lset=8.45999999999994e-06



.step lset=8.47999999999994e-06



.step lset=8.49999999999994e-06



.step lset=8.51999999999994e-06



.step lset=8.53999999999994e-06



.step lset=8.55999999999994e-06



.step lset=8.57999999999994e-06



.step lset=8.59999999999994e-06



.step lset=8.61999999999994e-06



.step lset=8.63999999999994e-06



.step lset=8.65999999999994e-06



.step lset=8.67999999999994e-06



.step lset=8.69999999999994e-06



.step lset=8.71999999999994e-06



.step lset=8.73999999999994e-06



.step lset=8.75999999999994e-06



.step lset=8.77999999999994e-06



.step lset=8.79999999999994e-06



.step lset=8.81999999999994e-06



.step lset=8.83999999999994e-06



.step lset=8.85999999999994e-06



.step lset=8.87999999999994e-06



.step lset=8.89999999999994e-06



.step lset=8.91999999999993e-06



.step lset=8.93999999999993e-06



.step lset=8.95999999999993e-06



.step lset=8.97999999999993e-06



.step lset=8.99999999999993e-06



.step lset=9.01999999999993e-06



.step lset=9.03999999999993e-06



.step lset=9.05999999999993e-06



.step lset=9.07999999999993e-06



.step lset=9.09999999999993e-06



.step lset=9.11999999999993e-06



.step lset=9.13999999999993e-06



.step lset=9.15999999999993e-06



.step lset=9.17999999999993e-06



.step lset=9.19999999999993e-06



.step lset=9.21999999999993e-06



.step lset=9.23999999999993e-06



.step lset=9.25999999999993e-06



.step lset=9.27999999999993e-06



.step lset=9.29999999999993e-06



.step lset=9.31999999999993e-06



.step lset=9.33999999999993e-06



.step lset=9.35999999999993e-06



.step lset=9.37999999999993e-06



.step lset=9.39999999999993e-06



.step lset=9.41999999999993e-06



.step lset=9.43999999999993e-06



.step lset=9.45999999999993e-06



.step lset=9.47999999999993e-06



.step lset=9.49999999999993e-06



.step lset=9.51999999999993e-06



.step lset=9.53999999999993e-06



.step lset=9.55999999999993e-06



.step lset=9.57999999999993e-06



.step lset=9.59999999999993e-06



.step lset=9.61999999999993e-06



.step lset=9.63999999999993e-06



.step lset=9.65999999999993e-06



.step lset=9.67999999999993e-06



.step lset=9.69999999999993e-06



.step lset=9.71999999999993e-06



.step lset=9.73999999999993e-06



.step lset=9.75999999999993e-06



.step lset=9.77999999999993e-06



.step lset=9.79999999999993e-06



.step lset=9.81999999999993e-06



.step lset=9.83999999999993e-06



.step lset=9.85999999999993e-06



.step lset=9.87999999999993e-06



.step lset=9.89999999999993e-06



.step lset=9.91999999999993e-06



.step lset=9.93999999999993e-06



.step lset=9.95999999999992e-06



.step lset=9.97999999999992e-06
tnom = 27
temp = 27
method = modified trap
.step lset=9.99999999999992e-06


Measurement: id1
  step	id(m1)	at
     1	3.54424e-06	0.5
     2	5.40097e-06	0.5
     3	6.64977e-06	0.5
     4	7.42524e-06	0.5
     5	7.89296e-06	0.5
     6	8.17268e-06	0.5
     7	8.34077e-06	0.5
     8	8.44401e-06	0.5
     9	8.5106e-06	0.5
    10	8.55743e-06	0.5
    11	8.59448e-06	0.5
    12	8.62756e-06	0.5
    13	8.65995e-06	0.5
    14	8.69338e-06	0.5
    15	8.72866e-06	0.5
    16	8.76606e-06	0.5
    17	8.80553e-06	0.5
    18	8.84686e-06	0.5
    19	8.88976e-06	0.5
    20	8.9339e-06	0.5
    21	8.97897e-06	0.5
    22	9.02466e-06	0.5
    23	9.07071e-06	0.5
    24	9.11688e-06	0.5
    25	9.16295e-06	0.5
    26	9.20876e-06	0.5
    27	9.25415e-06	0.5
    28	9.29901e-06	0.5
    29	9.34323e-06	0.5
    30	9.38674e-06	0.5
    31	9.42946e-06	0.5
    32	9.47135e-06	0.5
    33	9.51238e-06	0.5
    34	9.55251e-06	0.5
    35	9.59172e-06	0.5
    36	9.63002e-06	0.5
    37	9.66739e-06	0.5
    38	9.70383e-06	0.5
    39	9.73935e-06	0.5
    40	9.77396e-06	0.5
    41	9.80766e-06	0.5
    42	9.84047e-06	0.5
    43	9.87241e-06	0.5
    44	9.90349e-06	0.5
    45	9.93373e-06	0.5
    46	9.96315e-06	0.5
    47	9.99177e-06	0.5
    48	1.00196e-05	0.5
    49	1.00467e-05	0.5
    50	1.0073e-05	0.5
    51	1.00986e-05	0.5
    52	1.01235e-05	0.5
    53	1.01477e-05	0.5
    54	1.01713e-05	0.5
    55	1.01942e-05	0.5
    56	1.02164e-05	0.5
    57	1.02381e-05	0.5
    58	1.02592e-05	0.5
    59	1.02797e-05	0.5
    60	1.02996e-05	0.5
    61	1.03191e-05	0.5
    62	1.0338e-05	0.5
    63	1.03563e-05	0.5
    64	1.03742e-05	0.5
    65	1.03917e-05	0.5
    66	1.04086e-05	0.5
    67	1.04252e-05	0.5
    68	1.04413e-05	0.5
    69	1.04569e-05	0.5
    70	1.04722e-05	0.5
    71	1.04871e-05	0.5
    72	1.05016e-05	0.5
    73	1.05157e-05	0.5
    74	1.05295e-05	0.5
    75	1.0543e-05	0.5
    76	1.05561e-05	0.5
    77	1.05689e-05	0.5
    78	1.05813e-05	0.5
    79	1.05935e-05	0.5
    80	1.06054e-05	0.5
    81	1.0617e-05	0.5
    82	1.06283e-05	0.5
    83	1.06393e-05	0.5
    84	1.06501e-05	0.5
    85	1.06607e-05	0.5
    86	1.0671e-05	0.5
    87	1.0681e-05	0.5
    88	1.06908e-05	0.5
    89	1.07004e-05	0.5
    90	1.07098e-05	0.5
    91	1.0719e-05	0.5
    92	1.0728e-05	0.5
    93	1.07368e-05	0.5
    94	1.07454e-05	0.5
    95	1.07538e-05	0.5
    96	1.0762e-05	0.5
    97	1.07701e-05	0.5
    98	1.07779e-05	0.5
    99	1.07857e-05	0.5
   100	1.07932e-05	0.5
   101	1.08006e-05	0.5
   102	1.08079e-05	0.5
   103	1.0815e-05	0.5
   104	1.08219e-05	0.5
   105	1.08287e-05	0.5
   106	1.08354e-05	0.5
   107	1.0842e-05	0.5
   108	1.08484e-05	0.5
   109	1.08547e-05	0.5
   110	1.08609e-05	0.5
   111	1.08669e-05	0.5
   112	1.08729e-05	0.5
   113	1.08787e-05	0.5
   114	1.08844e-05	0.5
   115	1.089e-05	0.5
   116	1.08955e-05	0.5
   117	1.09009e-05	0.5
   118	1.09062e-05	0.5
   119	1.09115e-05	0.5
   120	1.09166e-05	0.5
   121	1.09216e-05	0.5
   122	1.09265e-05	0.5
   123	1.09314e-05	0.5
   124	1.09361e-05	0.5
   125	1.09408e-05	0.5
   126	1.09454e-05	0.5
   127	1.09499e-05	0.5
   128	1.09544e-05	0.5
   129	1.09587e-05	0.5
   130	1.0963e-05	0.5
   131	1.09673e-05	0.5
   132	1.09714e-05	0.5
   133	1.09755e-05	0.5
   134	1.09795e-05	0.5
   135	1.09834e-05	0.5
   136	1.09873e-05	0.5
   137	1.09912e-05	0.5
   138	1.09949e-05	0.5
   139	1.09986e-05	0.5
   140	1.10022e-05	0.5
   141	1.10058e-05	0.5
   142	1.10093e-05	0.5
   143	1.10128e-05	0.5
   144	1.10162e-05	0.5
   145	1.10196e-05	0.5
   146	1.10229e-05	0.5
   147	1.10262e-05	0.5
   148	1.10294e-05	0.5
   149	1.10325e-05	0.5
   150	1.10356e-05	0.5
   151	1.10387e-05	0.5
   152	1.10417e-05	0.5
   153	1.10447e-05	0.5
   154	1.10476e-05	0.5
   155	1.10505e-05	0.5
   156	1.10534e-05	0.5
   157	1.10562e-05	0.5
   158	1.10589e-05	0.5
   159	1.10616e-05	0.5
   160	1.10643e-05	0.5
   161	1.1067e-05	0.5
   162	1.10696e-05	0.5
   163	1.10722e-05	0.5
   164	1.10747e-05	0.5
   165	1.10772e-05	0.5
   166	1.10796e-05	0.5
   167	1.10821e-05	0.5
   168	1.10845e-05	0.5
   169	1.10868e-05	0.5
   170	1.10892e-05	0.5
   171	1.10915e-05	0.5
   172	1.10937e-05	0.5
   173	1.1096e-05	0.5
   174	1.10982e-05	0.5
   175	1.11003e-05	0.5
   176	1.11025e-05	0.5
   177	1.11046e-05	0.5
   178	1.11067e-05	0.5
   179	1.11087e-05	0.5
   180	1.11108e-05	0.5
   181	1.11128e-05	0.5
   182	1.11148e-05	0.5
   183	1.11167e-05	0.5
   184	1.11186e-05	0.5
   185	1.11206e-05	0.5
   186	1.11224e-05	0.5
   187	1.11243e-05	0.5
   188	1.11261e-05	0.5
   189	1.11279e-05	0.5
   190	1.11297e-05	0.5
   191	1.11315e-05	0.5
   192	1.11332e-05	0.5
   193	1.11349e-05	0.5
   194	1.11366e-05	0.5
   195	1.11383e-05	0.5
   196	1.11399e-05	0.5
   197	1.11416e-05	0.5
   198	1.11432e-05	0.5
   199	1.11448e-05	0.5
   200	1.11464e-05	0.5
   201	1.11479e-05	0.5
   202	1.11494e-05	0.5
   203	1.1151e-05	0.5
   204	1.11525e-05	0.5
   205	1.11539e-05	0.5
   206	1.11554e-05	0.5
   207	1.11568e-05	0.5
   208	1.11583e-05	0.5
   209	1.11597e-05	0.5
   210	1.11611e-05	0.5
   211	1.11624e-05	0.5
   212	1.11638e-05	0.5
   213	1.11651e-05	0.5
   214	1.11665e-05	0.5
   215	1.11678e-05	0.5
   216	1.11691e-05	0.5
   217	1.11704e-05	0.5
   218	1.11716e-05	0.5
   219	1.11729e-05	0.5
   220	1.11741e-05	0.5
   221	1.11753e-05	0.5
   222	1.11765e-05	0.5
   223	1.11777e-05	0.5
   224	1.11789e-05	0.5
   225	1.11801e-05	0.5
   226	1.11812e-05	0.5
   227	1.11824e-05	0.5
   228	1.11835e-05	0.5
   229	1.11846e-05	0.5
   230	1.11857e-05	0.5
   231	1.11868e-05	0.5
   232	1.11879e-05	0.5
   233	1.11889e-05	0.5
   234	1.119e-05	0.5
   235	1.1191e-05	0.5
   236	1.1192e-05	0.5
   237	1.11931e-05	0.5
   238	1.11941e-05	0.5
   239	1.1195e-05	0.5
   240	1.1196e-05	0.5
   241	1.1197e-05	0.5
   242	1.1198e-05	0.5
   243	1.11989e-05	0.5
   244	1.11998e-05	0.5
   245	1.12008e-05	0.5
   246	1.12017e-05	0.5
   247	1.12026e-05	0.5
   248	1.12035e-05	0.5
   249	1.12044e-05	0.5
   250	1.12053e-05	0.5
   251	1.12061e-05	0.5
   252	1.1207e-05	0.5
   253	1.12078e-05	0.5
   254	1.12087e-05	0.5
   255	1.12095e-05	0.5
   256	1.12103e-05	0.5
   257	1.12111e-05	0.5
   258	1.12119e-05	0.5
   259	1.12127e-05	0.5
   260	1.12135e-05	0.5
   261	1.12143e-05	0.5
   262	1.12151e-05	0.5
   263	1.12158e-05	0.5
   264	1.12166e-05	0.5
   265	1.12173e-05	0.5
   266	1.12181e-05	0.5
   267	1.12188e-05	0.5
   268	1.12195e-05	0.5
   269	1.12202e-05	0.5
   270	1.12209e-05	0.5
   271	1.12216e-05	0.5
   272	1.12223e-05	0.5
   273	1.1223e-05	0.5
   274	1.12237e-05	0.5
   275	1.12243e-05	0.5
   276	1.1225e-05	0.5
   277	1.12257e-05	0.5
   278	1.12263e-05	0.5
   279	1.12269e-05	0.5
   280	1.12276e-05	0.5
   281	1.12282e-05	0.5
   282	1.12288e-05	0.5
   283	1.12294e-05	0.5
   284	1.123e-05	0.5
   285	1.12306e-05	0.5
   286	1.12312e-05	0.5
   287	1.12318e-05	0.5
   288	1.12324e-05	0.5
   289	1.1233e-05	0.5
   290	1.12335e-05	0.5
   291	1.12341e-05	0.5
   292	1.12347e-05	0.5
   293	1.12352e-05	0.5
   294	1.12358e-05	0.5
   295	1.12363e-05	0.5
   296	1.12368e-05	0.5
   297	1.12374e-05	0.5
   298	1.12379e-05	0.5
   299	1.12384e-05	0.5
   300	1.12389e-05	0.5
   301	1.12394e-05	0.5
   302	1.12399e-05	0.5
   303	1.12404e-05	0.5
   304	1.12409e-05	0.5
   305	1.12414e-05	0.5
   306	1.12419e-05	0.5
   307	1.12423e-05	0.5
   308	1.12428e-05	0.5
   309	1.12433e-05	0.5
   310	1.12437e-05	0.5
   311	1.12442e-05	0.5
   312	1.12446e-05	0.5
   313	1.12451e-05	0.5
   314	1.12455e-05	0.5
   315	1.1246e-05	0.5
   316	1.12464e-05	0.5
   317	1.12468e-05	0.5
   318	1.12472e-05	0.5
   319	1.12477e-05	0.5
   320	1.12481e-05	0.5
   321	1.12485e-05	0.5
   322	1.12489e-05	0.5
   323	1.12493e-05	0.5
   324	1.12497e-05	0.5
   325	1.12501e-05	0.5
   326	1.12505e-05	0.5
   327	1.12508e-05	0.5
   328	1.12512e-05	0.5
   329	1.12516e-05	0.5
   330	1.1252e-05	0.5
   331	1.12523e-05	0.5
   332	1.12527e-05	0.5
   333	1.12531e-05	0.5
   334	1.12534e-05	0.5
   335	1.12538e-05	0.5
   336	1.12541e-05	0.5
   337	1.12545e-05	0.5
   338	1.12548e-05	0.5
   339	1.12551e-05	0.5
   340	1.12555e-05	0.5
   341	1.12558e-05	0.5
   342	1.12561e-05	0.5
   343	1.12564e-05	0.5
   344	1.12568e-05	0.5
   345	1.12571e-05	0.5
   346	1.12574e-05	0.5
   347	1.12577e-05	0.5
   348	1.1258e-05	0.5
   349	1.12583e-05	0.5
   350	1.12586e-05	0.5
   351	1.12589e-05	0.5
   352	1.12592e-05	0.5
   353	1.12595e-05	0.5
   354	1.12598e-05	0.5
   355	1.12601e-05	0.5
   356	1.12603e-05	0.5
   357	1.12606e-05	0.5
   358	1.12609e-05	0.5
   359	1.12612e-05	0.5
   360	1.12614e-05	0.5
   361	1.12617e-05	0.5
   362	1.12619e-05	0.5
   363	1.12622e-05	0.5
   364	1.12625e-05	0.5
   365	1.12627e-05	0.5
   366	1.1263e-05	0.5
   367	1.12632e-05	0.5
   368	1.12635e-05	0.5
   369	1.12637e-05	0.5
   370	1.12639e-05	0.5
   371	1.12642e-05	0.5
   372	1.12644e-05	0.5
   373	1.12646e-05	0.5
   374	1.12649e-05	0.5
   375	1.12651e-05	0.5
   376	1.12653e-05	0.5
   377	1.12655e-05	0.5
   378	1.12657e-05	0.5
   379	1.1266e-05	0.5
   380	1.12662e-05	0.5
   381	1.12664e-05	0.5
   382	1.12666e-05	0.5
   383	1.12668e-05	0.5
   384	1.1267e-05	0.5
   385	1.12672e-05	0.5
   386	1.12674e-05	0.5
   387	1.12676e-05	0.5
   388	1.12678e-05	0.5
   389	1.1268e-05	0.5
   390	1.12682e-05	0.5
   391	1.12684e-05	0.5
   392	1.12685e-05	0.5
   393	1.12687e-05	0.5
   394	1.12689e-05	0.5
   395	1.12691e-05	0.5
   396	1.12692e-05	0.5
   397	1.12694e-05	0.5
   398	1.12696e-05	0.5
   399	1.12698e-05	0.5
   400	1.12699e-05	0.5
   401	1.12701e-05	0.5
   402	1.12703e-05	0.5
   403	1.12704e-05	0.5
   404	1.12706e-05	0.5
   405	1.12707e-05	0.5
   406	1.12709e-05	0.5
   407	1.1271e-05	0.5
   408	1.12712e-05	0.5
   409	1.12713e-05	0.5
   410	1.12715e-05	0.5
   411	1.12716e-05	0.5
   412	1.12718e-05	0.5
   413	1.12719e-05	0.5
   414	1.12721e-05	0.5
   415	1.12722e-05	0.5
   416	1.12723e-05	0.5
   417	1.12725e-05	0.5
   418	1.12726e-05	0.5
   419	1.12727e-05	0.5
   420	1.12729e-05	0.5
   421	1.1273e-05	0.5
   422	1.12731e-05	0.5
   423	1.12732e-05	0.5
   424	1.12733e-05	0.5
   425	1.12735e-05	0.5
   426	1.12736e-05	0.5
   427	1.12737e-05	0.5
   428	1.12738e-05	0.5
   429	1.12739e-05	0.5
   430	1.1274e-05	0.5
   431	1.12742e-05	0.5
   432	1.12743e-05	0.5
   433	1.12744e-05	0.5
   434	1.12745e-05	0.5
   435	1.12746e-05	0.5
   436	1.12747e-05	0.5
   437	1.12748e-05	0.5
   438	1.12749e-05	0.5
   439	1.1275e-05	0.5
   440	1.12751e-05	0.5
   441	1.12752e-05	0.5
   442	1.12753e-05	0.5
   443	1.12754e-05	0.5
   444	1.12754e-05	0.5
   445	1.12755e-05	0.5
   446	1.12756e-05	0.5
   447	1.12757e-05	0.5
   448	1.12758e-05	0.5
   449	1.12759e-05	0.5
   450	1.1276e-05	0.5
   451	1.1276e-05	0.5
   452	1.12761e-05	0.5
   453	1.12762e-05	0.5
   454	1.12763e-05	0.5
   455	1.12763e-05	0.5
   456	1.12764e-05	0.5
   457	1.12765e-05	0.5
   458	1.12766e-05	0.5
   459	1.12766e-05	0.5
   460	1.12767e-05	0.5
   461	1.12768e-05	0.5
   462	1.12768e-05	0.5
   463	1.12769e-05	0.5
   464	1.1277e-05	0.5
   465	1.1277e-05	0.5
   466	1.12771e-05	0.5
   467	1.12771e-05	0.5
   468	1.12772e-05	0.5
   469	1.12773e-05	0.5
   470	1.12773e-05	0.5
   471	1.12774e-05	0.5
   472	1.12774e-05	0.5
   473	1.12775e-05	0.5
   474	1.12775e-05	0.5
   475	1.12776e-05	0.5
   476	1.12776e-05	0.5
   477	1.12777e-05	0.5
   478	1.12777e-05	0.5
   479	1.12778e-05	0.5
   480	1.12778e-05	0.5
   481	1.12779e-05	0.5
   482	1.12779e-05	0.5
   483	1.12779e-05	0.5
   484	1.1278e-05	0.5
   485	1.1278e-05	0.5
   486	1.12781e-05	0.5
   487	1.12781e-05	0.5
   488	1.12781e-05	0.5
   489	1.12782e-05	0.5
   490	1.12782e-05	0.5
   491	1.12782e-05	0.5
   492	1.12783e-05	0.5
   493	1.12783e-05	0.5
   494	1.12783e-05	0.5
   495	1.12784e-05	0.5
   496	1.12784e-05	0.5

Measurement: id2
  step	id(m1)	at
     1	2.13593e-06	1.3
     2	3.52776e-06	1.3
     3	4.57216e-06	1.3
     4	5.29088e-06	1.3
     5	5.77675e-06	1.3
     6	6.10977e-06	1.3
     7	6.34558e-06	1.3
     8	6.52038e-06	1.3
     9	6.65715e-06	1.3
    10	6.77035e-06	1.3
    11	6.86903e-06	1.3
    12	6.95881e-06	1.3
    13	7.04314e-06	1.3
    14	7.12412e-06	1.3
    15	7.20297e-06	1.3
    16	7.28039e-06	1.3
    17	7.35673e-06	1.3
    18	7.43213e-06	1.3
    19	7.50663e-06	1.3
    20	7.58017e-06	1.3
    21	7.65269e-06	1.3
    22	7.72411e-06	1.3
    23	7.79433e-06	1.3
    24	7.86328e-06	1.3
    25	7.93088e-06	1.3
    26	7.99709e-06	1.3
    27	8.06187e-06	1.3
    28	8.12517e-06	1.3
    29	8.18698e-06	1.3
    30	8.2473e-06	1.3
    31	8.30611e-06	1.3
    32	8.36343e-06	1.3
    33	8.41927e-06	1.3
    34	8.47365e-06	1.3
    35	8.52658e-06	1.3
    36	8.57809e-06	1.3
    37	8.62821e-06	1.3
    38	8.67696e-06	1.3
    39	8.72439e-06	1.3
    40	8.77052e-06	1.3
    41	8.81538e-06	1.3
    42	8.859e-06	1.3
    43	8.90143e-06	1.3
    44	8.94269e-06	1.3
    45	8.98281e-06	1.3
    46	9.02184e-06	1.3
    47	9.0598e-06	1.3
    48	9.09672e-06	1.3
    49	9.13263e-06	1.3
    50	9.16757e-06	1.3
    51	9.20157e-06	1.3
    52	9.23465e-06	1.3
    53	9.26684e-06	1.3
    54	9.29817e-06	1.3
    55	9.32867e-06	1.3
    56	9.35837e-06	1.3
    57	9.38728e-06	1.3
    58	9.41544e-06	1.3
    59	9.44287e-06	1.3
    60	9.46959e-06	1.3
    61	9.49562e-06	1.3
    62	9.52099e-06	1.3
    63	9.54572e-06	1.3
    64	9.56982e-06	1.3
    65	9.59332e-06	1.3
    66	9.61624e-06	1.3
    67	9.63859e-06	1.3
    68	9.66039e-06	1.3
    69	9.68167e-06	1.3
    70	9.70243e-06	1.3
    71	9.72269e-06	1.3
    72	9.74247e-06	1.3
    73	9.76179e-06	1.3
    74	9.78065e-06	1.3
    75	9.79908e-06	1.3
    76	9.81708e-06	1.3
    77	9.83467e-06	1.3
    78	9.85186e-06	1.3
    79	9.86866e-06	1.3
    80	9.88509e-06	1.3
    81	9.90115e-06	1.3
    82	9.91686e-06	1.3
    83	9.93223e-06	1.3
    84	9.94727e-06	1.3
    85	9.96199e-06	1.3
    86	9.97639e-06	1.3
    87	9.99049e-06	1.3
    88	1.00043e-05	1.3
    89	1.00178e-05	1.3
    90	1.00311e-05	1.3
    91	1.0044e-05	1.3
    92	1.00567e-05	1.3
    93	1.00692e-05	1.3
    94	1.00814e-05	1.3
    95	1.00934e-05	1.3
    96	1.01051e-05	1.3
    97	1.01166e-05	1.3
    98	1.01279e-05	1.3
    99	1.01389e-05	1.3
   100	1.01498e-05	1.3
   101	1.01605e-05	1.3
   102	1.01709e-05	1.3
   103	1.01812e-05	1.3
   104	1.01912e-05	1.3
   105	1.02011e-05	1.3
   106	1.02108e-05	1.3
   107	1.02204e-05	1.3
   108	1.02298e-05	1.3
   109	1.0239e-05	1.3
   110	1.0248e-05	1.3
   111	1.02569e-05	1.3
   112	1.02656e-05	1.3
   113	1.02742e-05	1.3
   114	1.02826e-05	1.3
   115	1.02909e-05	1.3
   116	1.02991e-05	1.3
   117	1.03071e-05	1.3
   118	1.0315e-05	1.3
   119	1.03228e-05	1.3
   120	1.03304e-05	1.3
   121	1.03379e-05	1.3
   122	1.03453e-05	1.3
   123	1.03526e-05	1.3
   124	1.03598e-05	1.3
   125	1.03668e-05	1.3
   126	1.03737e-05	1.3
   127	1.03806e-05	1.3
   128	1.03873e-05	1.3
   129	1.03939e-05	1.3
   130	1.04005e-05	1.3
   131	1.04069e-05	1.3
   132	1.04132e-05	1.3
   133	1.04195e-05	1.3
   134	1.04256e-05	1.3
   135	1.04317e-05	1.3
   136	1.04377e-05	1.3
   137	1.04435e-05	1.3
   138	1.04493e-05	1.3
   139	1.04551e-05	1.3
   140	1.04607e-05	1.3
   141	1.04663e-05	1.3
   142	1.04717e-05	1.3
   143	1.04771e-05	1.3
   144	1.04825e-05	1.3
   145	1.04877e-05	1.3
   146	1.04929e-05	1.3
   147	1.0498e-05	1.3
   148	1.05031e-05	1.3
   149	1.05081e-05	1.3
   150	1.0513e-05	1.3
   151	1.05178e-05	1.3
   152	1.05226e-05	1.3
   153	1.05273e-05	1.3
   154	1.0532e-05	1.3
   155	1.05366e-05	1.3
   156	1.05412e-05	1.3
   157	1.05456e-05	1.3
   158	1.05501e-05	1.3
   159	1.05545e-05	1.3
   160	1.05588e-05	1.3
   161	1.0563e-05	1.3
   162	1.05673e-05	1.3
   163	1.05714e-05	1.3
   164	1.05755e-05	1.3
   165	1.05796e-05	1.3
   166	1.05836e-05	1.3
   167	1.05876e-05	1.3
   168	1.05915e-05	1.3
   169	1.05953e-05	1.3
   170	1.05992e-05	1.3
   171	1.0603e-05	1.3
   172	1.06067e-05	1.3
   173	1.06104e-05	1.3
   174	1.0614e-05	1.3
   175	1.06176e-05	1.3
   176	1.06212e-05	1.3
   177	1.06247e-05	1.3
   178	1.06282e-05	1.3
   179	1.06317e-05	1.3
   180	1.06351e-05	1.3
   181	1.06384e-05	1.3
   182	1.06418e-05	1.3
   183	1.06451e-05	1.3
   184	1.06483e-05	1.3
   185	1.06515e-05	1.3
   186	1.06547e-05	1.3
   187	1.06579e-05	1.3
   188	1.0661e-05	1.3
   189	1.06641e-05	1.3
   190	1.06671e-05	1.3
   191	1.06701e-05	1.3
   192	1.06731e-05	1.3
   193	1.06761e-05	1.3
   194	1.0679e-05	1.3
   195	1.06819e-05	1.3
   196	1.06848e-05	1.3
   197	1.06876e-05	1.3
   198	1.06904e-05	1.3
   199	1.06932e-05	1.3
   200	1.06959e-05	1.3
   201	1.06987e-05	1.3
   202	1.07014e-05	1.3
   203	1.0704e-05	1.3
   204	1.07067e-05	1.3
   205	1.07093e-05	1.3
   206	1.07119e-05	1.3
   207	1.07144e-05	1.3
   208	1.0717e-05	1.3
   209	1.07195e-05	1.3
   210	1.0722e-05	1.3
   211	1.07244e-05	1.3
   212	1.07269e-05	1.3
   213	1.07293e-05	1.3
   214	1.07317e-05	1.3
   215	1.0734e-05	1.3
   216	1.07364e-05	1.3
   217	1.07387e-05	1.3
   218	1.0741e-05	1.3
   219	1.07433e-05	1.3
   220	1.07455e-05	1.3
   221	1.07478e-05	1.3
   222	1.075e-05	1.3
   223	1.07522e-05	1.3
   224	1.07544e-05	1.3
   225	1.07565e-05	1.3
   226	1.07587e-05	1.3
   227	1.07608e-05	1.3
   228	1.07629e-05	1.3
   229	1.07649e-05	1.3
   230	1.0767e-05	1.3
   231	1.0769e-05	1.3
   232	1.07711e-05	1.3
   233	1.07731e-05	1.3
   234	1.07751e-05	1.3
   235	1.0777e-05	1.3
   236	1.0779e-05	1.3
   237	1.07809e-05	1.3
   238	1.07828e-05	1.3
   239	1.07847e-05	1.3
   240	1.07866e-05	1.3
   241	1.07885e-05	1.3
   242	1.07903e-05	1.3
   243	1.07922e-05	1.3
   244	1.0794e-05	1.3
   245	1.07958e-05	1.3
   246	1.07976e-05	1.3
   247	1.07994e-05	1.3
   248	1.08011e-05	1.3
   249	1.08029e-05	1.3
   250	1.08046e-05	1.3
   251	1.08063e-05	1.3
   252	1.0808e-05	1.3
   253	1.08097e-05	1.3
   254	1.08114e-05	1.3
   255	1.0813e-05	1.3
   256	1.08147e-05	1.3
   257	1.08163e-05	1.3
   258	1.08179e-05	1.3
   259	1.08195e-05	1.3
   260	1.08211e-05	1.3
   261	1.08227e-05	1.3
   262	1.08243e-05	1.3
   263	1.08258e-05	1.3
   264	1.08274e-05	1.3
   265	1.08289e-05	1.3
   266	1.08304e-05	1.3
   267	1.08319e-05	1.3
   268	1.08334e-05	1.3
   269	1.08349e-05	1.3
   270	1.08364e-05	1.3
   271	1.08378e-05	1.3
   272	1.08393e-05	1.3
   273	1.08407e-05	1.3
   274	1.08421e-05	1.3
   275	1.08435e-05	1.3
   276	1.08449e-05	1.3
   277	1.08463e-05	1.3
   278	1.08477e-05	1.3
   279	1.08491e-05	1.3
   280	1.08505e-05	1.3
   281	1.08518e-05	1.3
   282	1.08531e-05	1.3
   283	1.08545e-05	1.3
   284	1.08558e-05	1.3
   285	1.08571e-05	1.3
   286	1.08584e-05	1.3
   287	1.08597e-05	1.3
   288	1.0861e-05	1.3
   289	1.08622e-05	1.3
   290	1.08635e-05	1.3
   291	1.08648e-05	1.3
   292	1.0866e-05	1.3
   293	1.08672e-05	1.3
   294	1.08685e-05	1.3
   295	1.08697e-05	1.3
   296	1.08709e-05	1.3
   297	1.08721e-05	1.3
   298	1.08733e-05	1.3
   299	1.08745e-05	1.3
   300	1.08756e-05	1.3
   301	1.08768e-05	1.3
   302	1.0878e-05	1.3
   303	1.08791e-05	1.3
   304	1.08802e-05	1.3
   305	1.08814e-05	1.3
   306	1.08825e-05	1.3
   307	1.08836e-05	1.3
   308	1.08847e-05	1.3
   309	1.08858e-05	1.3
   310	1.08869e-05	1.3
   311	1.0888e-05	1.3
   312	1.08891e-05	1.3
   313	1.08901e-05	1.3
   314	1.08912e-05	1.3
   315	1.08923e-05	1.3
   316	1.08933e-05	1.3
   317	1.08944e-05	1.3
   318	1.08954e-05	1.3
   319	1.08964e-05	1.3
   320	1.08974e-05	1.3
   321	1.08985e-05	1.3
   322	1.08995e-05	1.3
   323	1.09005e-05	1.3
   324	1.09014e-05	1.3
   325	1.09024e-05	1.3
   326	1.09034e-05	1.3
   327	1.09044e-05	1.3
   328	1.09054e-05	1.3
   329	1.09063e-05	1.3
   330	1.09073e-05	1.3
   331	1.09082e-05	1.3
   332	1.09092e-05	1.3
   333	1.09101e-05	1.3
   334	1.0911e-05	1.3
   335	1.09119e-05	1.3
   336	1.09129e-05	1.3
   337	1.09138e-05	1.3
   338	1.09147e-05	1.3
   339	1.09156e-05	1.3
   340	1.09165e-05	1.3
   341	1.09174e-05	1.3
   342	1.09182e-05	1.3
   343	1.09191e-05	1.3
   344	1.092e-05	1.3
   345	1.09208e-05	1.3
   346	1.09217e-05	1.3
   347	1.09226e-05	1.3
   348	1.09234e-05	1.3
   349	1.09242e-05	1.3
   350	1.09251e-05	1.3
   351	1.09259e-05	1.3
   352	1.09267e-05	1.3
   353	1.09276e-05	1.3
   354	1.09284e-05	1.3
   355	1.09292e-05	1.3
   356	1.093e-05	1.3
   357	1.09308e-05	1.3
   358	1.09316e-05	1.3
   359	1.09324e-05	1.3
   360	1.09332e-05	1.3
   361	1.0934e-05	1.3
   362	1.09347e-05	1.3
   363	1.09355e-05	1.3
   364	1.09363e-05	1.3
   365	1.0937e-05	1.3
   366	1.09378e-05	1.3
   367	1.09386e-05	1.3
   368	1.09393e-05	1.3
   369	1.094e-05	1.3
   370	1.09408e-05	1.3
   371	1.09415e-05	1.3
   372	1.09423e-05	1.3
   373	1.0943e-05	1.3
   374	1.09437e-05	1.3
   375	1.09444e-05	1.3
   376	1.09451e-05	1.3
   377	1.09458e-05	1.3
   378	1.09465e-05	1.3
   379	1.09473e-05	1.3
   380	1.09479e-05	1.3
   381	1.09486e-05	1.3
   382	1.09493e-05	1.3
   383	1.095e-05	1.3
   384	1.09507e-05	1.3
   385	1.09514e-05	1.3
   386	1.0952e-05	1.3
   387	1.09527e-05	1.3
   388	1.09534e-05	1.3
   389	1.0954e-05	1.3
   390	1.09547e-05	1.3
   391	1.09554e-05	1.3
   392	1.0956e-05	1.3
   393	1.09566e-05	1.3
   394	1.09573e-05	1.3
   395	1.09579e-05	1.3
   396	1.09586e-05	1.3
   397	1.09592e-05	1.3
   398	1.09598e-05	1.3
   399	1.09604e-05	1.3
   400	1.09611e-05	1.3
   401	1.09617e-05	1.3
   402	1.09623e-05	1.3
   403	1.09629e-05	1.3
   404	1.09635e-05	1.3
   405	1.09641e-05	1.3
   406	1.09647e-05	1.3
   407	1.09653e-05	1.3
   408	1.09659e-05	1.3
   409	1.09665e-05	1.3
   410	1.09671e-05	1.3
   411	1.09677e-05	1.3
   412	1.09682e-05	1.3
   413	1.09688e-05	1.3
   414	1.09694e-05	1.3
   415	1.097e-05	1.3
   416	1.09705e-05	1.3
   417	1.09711e-05	1.3
   418	1.09717e-05	1.3
   419	1.09722e-05	1.3
   420	1.09728e-05	1.3
   421	1.09733e-05	1.3
   422	1.09739e-05	1.3
   423	1.09744e-05	1.3
   424	1.0975e-05	1.3
   425	1.09755e-05	1.3
   426	1.0976e-05	1.3
   427	1.09766e-05	1.3
   428	1.09771e-05	1.3
   429	1.09776e-05	1.3
   430	1.09782e-05	1.3
   431	1.09787e-05	1.3
   432	1.09792e-05	1.3
   433	1.09797e-05	1.3
   434	1.09802e-05	1.3
   435	1.09807e-05	1.3
   436	1.09813e-05	1.3
   437	1.09818e-05	1.3
   438	1.09823e-05	1.3
   439	1.09828e-05	1.3
   440	1.09833e-05	1.3
   441	1.09838e-05	1.3
   442	1.09843e-05	1.3
   443	1.09847e-05	1.3
   444	1.09852e-05	1.3
   445	1.09857e-05	1.3
   446	1.09862e-05	1.3
   447	1.09867e-05	1.3
   448	1.09872e-05	1.3
   449	1.09876e-05	1.3
   450	1.09881e-05	1.3
   451	1.09886e-05	1.3
   452	1.0989e-05	1.3
   453	1.09895e-05	1.3
   454	1.099e-05	1.3
   455	1.09904e-05	1.3
   456	1.09909e-05	1.3
   457	1.09913e-05	1.3
   458	1.09918e-05	1.3
   459	1.09923e-05	1.3
   460	1.09927e-05	1.3
   461	1.09932e-05	1.3
   462	1.09936e-05	1.3
   463	1.0994e-05	1.3
   464	1.09945e-05	1.3
   465	1.09949e-05	1.3
   466	1.09954e-05	1.3
   467	1.09958e-05	1.3
   468	1.09962e-05	1.3
   469	1.09966e-05	1.3
   470	1.09971e-05	1.3
   471	1.09975e-05	1.3
   472	1.09979e-05	1.3
   473	1.09983e-05	1.3
   474	1.09988e-05	1.3
   475	1.09992e-05	1.3
   476	1.09996e-05	1.3
   477	1.1e-05	1.3
   478	1.10004e-05	1.3
   479	1.10008e-05	1.3
   480	1.10012e-05	1.3
   481	1.10016e-05	1.3
   482	1.1002e-05	1.3
   483	1.10024e-05	1.3
   484	1.10028e-05	1.3
   485	1.10032e-05	1.3
   486	1.10036e-05	1.3
   487	1.1004e-05	1.3
   488	1.10044e-05	1.3
   489	1.10048e-05	1.3
   490	1.10052e-05	1.3
   491	1.10056e-05	1.3
   492	1.10059e-05	1.3
   493	1.10063e-05	1.3
   494	1.10067e-05	1.3
   495	1.10071e-05	1.3
   496	1.10075e-05	1.3

Measurement: id0
  step	id(m1)	at
     1	2.82318e-06	0.9
     2	4.45316e-06	0.9
     3	5.60354e-06	0.9
     4	6.35227e-06	0.9
     5	6.82954e-06	0.9
     6	7.13589e-06	0.9
     7	7.33768e-06	0.9
     8	7.47653e-06	0.9
     9	7.57809e-06	0.9
    10	7.65804e-06	0.9
    11	7.72589e-06	0.9
    12	7.78734e-06	0.9
    13	7.84576e-06	0.9
    14	7.90305e-06	0.9
    15	7.96023e-06	0.9
    16	8.01775e-06	0.9
    17	8.07578e-06	0.9
    18	8.13428e-06	0.9
    19	8.19312e-06	0.9
    20	8.2521e-06	0.9
    21	8.31103e-06	0.9
    22	8.36972e-06	0.9
    23	8.42799e-06	0.9
    24	8.48568e-06	0.9
    25	8.54265e-06	0.9
    26	8.59879e-06	0.9
    27	8.654e-06	0.9
    28	8.70821e-06	0.9
    29	8.76134e-06	0.9
    30	8.81337e-06	0.9
    31	8.86425e-06	0.9
    32	8.91397e-06	0.9
    33	8.96251e-06	0.9
    34	9.00987e-06	0.9
    35	9.05604e-06	0.9
    36	9.10105e-06	0.9
    37	9.14489e-06	0.9
    38	9.18758e-06	0.9
    39	9.22915e-06	0.9
    40	9.2696e-06	0.9
    41	9.30897e-06	0.9
    42	9.34728e-06	0.9
    43	9.38454e-06	0.9
    44	9.42079e-06	0.9
    45	9.45605e-06	0.9
    46	9.49035e-06	0.9
    47	9.52371e-06	0.9
    48	9.55616e-06	0.9
    49	9.58772e-06	0.9
    50	9.61843e-06	0.9
    51	9.64829e-06	0.9
    52	9.67735e-06	0.9
    53	9.70561e-06	0.9
    54	9.73312e-06	0.9
    55	9.75988e-06	0.9
    56	9.78593e-06	0.9
    57	9.81128e-06	0.9
    58	9.83595e-06	0.9
    59	9.85997e-06	0.9
    60	9.88337e-06	0.9
    61	9.90614e-06	0.9
    62	9.92833e-06	0.9
    63	9.94994e-06	0.9
    64	9.97099e-06	0.9
    65	9.9915e-06	0.9
    66	1.00115e-05	0.9
    67	1.0031e-05	0.9
    68	1.005e-05	0.9
    69	1.00685e-05	0.9
    70	1.00866e-05	0.9
    71	1.01042e-05	0.9
    72	1.01214e-05	0.9
    73	1.01381e-05	0.9
    74	1.01545e-05	0.9
    75	1.01705e-05	0.9
    76	1.01861e-05	0.9
    77	1.02013e-05	0.9
    78	1.02161e-05	0.9
    79	1.02307e-05	0.9
    80	1.02449e-05	0.9
    81	1.02587e-05	0.9
    82	1.02723e-05	0.9
    83	1.02855e-05	0.9
    84	1.02985e-05	0.9
    85	1.03111e-05	0.9
    86	1.03235e-05	0.9
    87	1.03356e-05	0.9
    88	1.03474e-05	0.9
    89	1.0359e-05	0.9
    90	1.03704e-05	0.9
    91	1.03815e-05	0.9
    92	1.03924e-05	0.9
    93	1.0403e-05	0.9
    94	1.04134e-05	0.9
    95	1.04237e-05	0.9
    96	1.04337e-05	0.9
    97	1.04435e-05	0.9
    98	1.04531e-05	0.9
    99	1.04625e-05	0.9
   100	1.04717e-05	0.9
   101	1.04808e-05	0.9
   102	1.04896e-05	0.9
   103	1.04984e-05	0.9
   104	1.05069e-05	0.9
   105	1.05153e-05	0.9
   106	1.05235e-05	0.9
   107	1.05316e-05	0.9
   108	1.05395e-05	0.9
   109	1.05472e-05	0.9
   110	1.05549e-05	0.9
   111	1.05624e-05	0.9
   112	1.05697e-05	0.9
   113	1.0577e-05	0.9
   114	1.05841e-05	0.9
   115	1.0591e-05	0.9
   116	1.05979e-05	0.9
   117	1.06046e-05	0.9
   118	1.06112e-05	0.9
   119	1.06177e-05	0.9
   120	1.06241e-05	0.9
   121	1.06304e-05	0.9
   122	1.06366e-05	0.9
   123	1.06427e-05	0.9
   124	1.06487e-05	0.9
   125	1.06545e-05	0.9
   126	1.06603e-05	0.9
   127	1.0666e-05	0.9
   128	1.06716e-05	0.9
   129	1.06771e-05	0.9
   130	1.06826e-05	0.9
   131	1.06879e-05	0.9
   132	1.06932e-05	0.9
   133	1.06983e-05	0.9
   134	1.07034e-05	0.9
   135	1.07085e-05	0.9
   136	1.07134e-05	0.9
   137	1.07183e-05	0.9
   138	1.07231e-05	0.9
   139	1.07278e-05	0.9
   140	1.07324e-05	0.9
   141	1.0737e-05	0.9
   142	1.07415e-05	0.9
   143	1.0746e-05	0.9
   144	1.07504e-05	0.9
   145	1.07547e-05	0.9
   146	1.0759e-05	0.9
   147	1.07632e-05	0.9
   148	1.07673e-05	0.9
   149	1.07714e-05	0.9
   150	1.07754e-05	0.9
   151	1.07794e-05	0.9
   152	1.07833e-05	0.9
   153	1.07872e-05	0.9
   154	1.0791e-05	0.9
   155	1.07947e-05	0.9
   156	1.07984e-05	0.9
   157	1.08021e-05	0.9
   158	1.08057e-05	0.9
   159	1.08093e-05	0.9
   160	1.08128e-05	0.9
   161	1.08162e-05	0.9
   162	1.08197e-05	0.9
   163	1.0823e-05	0.9
   164	1.08264e-05	0.9
   165	1.08297e-05	0.9
   166	1.08329e-05	0.9
   167	1.08361e-05	0.9
   168	1.08393e-05	0.9
   169	1.08424e-05	0.9
   170	1.08455e-05	0.9
   171	1.08485e-05	0.9
   172	1.08515e-05	0.9
   173	1.08545e-05	0.9
   174	1.08575e-05	0.9
   175	1.08604e-05	0.9
   176	1.08632e-05	0.9
   177	1.0866e-05	0.9
   178	1.08688e-05	0.9
   179	1.08716e-05	0.9
   180	1.08743e-05	0.9
   181	1.0877e-05	0.9
   182	1.08797e-05	0.9
   183	1.08823e-05	0.9
   184	1.08849e-05	0.9
   185	1.08875e-05	0.9
   186	1.089e-05	0.9
   187	1.08926e-05	0.9
   188	1.0895e-05	0.9
   189	1.08975e-05	0.9
   190	1.08999e-05	0.9
   191	1.09023e-05	0.9
   192	1.09047e-05	0.9
   193	1.0907e-05	0.9
   194	1.09094e-05	0.9
   195	1.09116e-05	0.9
   196	1.09139e-05	0.9
   197	1.09162e-05	0.9
   198	1.09184e-05	0.9
   199	1.09206e-05	0.9
   200	1.09227e-05	0.9
   201	1.09249e-05	0.9
   202	1.0927e-05	0.9
   203	1.09291e-05	0.9
   204	1.09312e-05	0.9
   205	1.09332e-05	0.9
   206	1.09353e-05	0.9
   207	1.09373e-05	0.9
   208	1.09393e-05	0.9
   209	1.09412e-05	0.9
   210	1.09432e-05	0.9
   211	1.09451e-05	0.9
   212	1.0947e-05	0.9
   213	1.09489e-05	0.9
   214	1.09507e-05	0.9
   215	1.09526e-05	0.9
   216	1.09544e-05	0.9
   217	1.09562e-05	0.9
   218	1.0958e-05	0.9
   219	1.09598e-05	0.9
   220	1.09615e-05	0.9
   221	1.09633e-05	0.9
   222	1.0965e-05	0.9
   223	1.09667e-05	0.9
   224	1.09684e-05	0.9
   225	1.097e-05	0.9
   226	1.09717e-05	0.9
   227	1.09733e-05	0.9
   228	1.0975e-05	0.9
   229	1.09766e-05	0.9
   230	1.09781e-05	0.9
   231	1.09797e-05	0.9
   232	1.09813e-05	0.9
   233	1.09828e-05	0.9
   234	1.09843e-05	0.9
   235	1.09858e-05	0.9
   236	1.09873e-05	0.9
   237	1.09888e-05	0.9
   238	1.09903e-05	0.9
   239	1.09917e-05	0.9
   240	1.09932e-05	0.9
   241	1.09946e-05	0.9
   242	1.0996e-05	0.9
   243	1.09974e-05	0.9
   244	1.09988e-05	0.9
   245	1.10002e-05	0.9
   246	1.10015e-05	0.9
   247	1.10029e-05	0.9
   248	1.10042e-05	0.9
   249	1.10055e-05	0.9
   250	1.10068e-05	0.9
   251	1.10081e-05	0.9
   252	1.10094e-05	0.9
   253	1.10107e-05	0.9
   254	1.10119e-05	0.9
   255	1.10132e-05	0.9
   256	1.10144e-05	0.9
   257	1.10157e-05	0.9
   258	1.10169e-05	0.9
   259	1.10181e-05	0.9
   260	1.10193e-05	0.9
   261	1.10205e-05	0.9
   262	1.10216e-05	0.9
   263	1.10228e-05	0.9
   264	1.10239e-05	0.9
   265	1.10251e-05	0.9
   266	1.10262e-05	0.9
   267	1.10273e-05	0.9
   268	1.10284e-05	0.9
   269	1.10296e-05	0.9
   270	1.10306e-05	0.9
   271	1.10317e-05	0.9
   272	1.10328e-05	0.9
   273	1.10339e-05	0.9
   274	1.10349e-05	0.9
   275	1.1036e-05	0.9
   276	1.1037e-05	0.9
   277	1.1038e-05	0.9
   278	1.1039e-05	0.9
   279	1.10401e-05	0.9
   280	1.10411e-05	0.9
   281	1.1042e-05	0.9
   282	1.1043e-05	0.9
   283	1.1044e-05	0.9
   284	1.1045e-05	0.9
   285	1.10459e-05	0.9
   286	1.10469e-05	0.9
   287	1.10478e-05	0.9
   288	1.10488e-05	0.9
   289	1.10497e-05	0.9
   290	1.10506e-05	0.9
   291	1.10515e-05	0.9
   292	1.10524e-05	0.9
   293	1.10533e-05	0.9
   294	1.10542e-05	0.9
   295	1.10551e-05	0.9
   296	1.1056e-05	0.9
   297	1.10568e-05	0.9
   298	1.10577e-05	0.9
   299	1.10585e-05	0.9
   300	1.10594e-05	0.9
   301	1.10602e-05	0.9
   302	1.10611e-05	0.9
   303	1.10619e-05	0.9
   304	1.10627e-05	0.9
   305	1.10635e-05	0.9
   306	1.10643e-05	0.9
   307	1.10651e-05	0.9
   308	1.10659e-05	0.9
   309	1.10667e-05	0.9
   310	1.10675e-05	0.9
   311	1.10683e-05	0.9
   312	1.1069e-05	0.9
   313	1.10698e-05	0.9
   314	1.10705e-05	0.9
   315	1.10713e-05	0.9
   316	1.1072e-05	0.9
   317	1.10728e-05	0.9
   318	1.10735e-05	0.9
   319	1.10742e-05	0.9
   320	1.10749e-05	0.9
   321	1.10757e-05	0.9
   322	1.10764e-05	0.9
   323	1.10771e-05	0.9
   324	1.10778e-05	0.9
   325	1.10785e-05	0.9
   326	1.10791e-05	0.9
   327	1.10798e-05	0.9
   328	1.10805e-05	0.9
   329	1.10812e-05	0.9
   330	1.10818e-05	0.9
   331	1.10825e-05	0.9
   332	1.10832e-05	0.9
   333	1.10838e-05	0.9
   334	1.10845e-05	0.9
   335	1.10851e-05	0.9
   336	1.10857e-05	0.9
   337	1.10864e-05	0.9
   338	1.1087e-05	0.9
   339	1.10876e-05	0.9
   340	1.10882e-05	0.9
   341	1.10888e-05	0.9
   342	1.10894e-05	0.9
   343	1.109e-05	0.9
   344	1.10906e-05	0.9
   345	1.10912e-05	0.9
   346	1.10918e-05	0.9
   347	1.10924e-05	0.9
   348	1.1093e-05	0.9
   349	1.10936e-05	0.9
   350	1.10941e-05	0.9
   351	1.10947e-05	0.9
   352	1.10953e-05	0.9
   353	1.10958e-05	0.9
   354	1.10964e-05	0.9
   355	1.10969e-05	0.9
   356	1.10975e-05	0.9
   357	1.1098e-05	0.9
   358	1.10985e-05	0.9
   359	1.10991e-05	0.9
   360	1.10996e-05	0.9
   361	1.11001e-05	0.9
   362	1.11007e-05	0.9
   363	1.11012e-05	0.9
   364	1.11017e-05	0.9
   365	1.11022e-05	0.9
   366	1.11027e-05	0.9
   367	1.11032e-05	0.9
   368	1.11037e-05	0.9
   369	1.11042e-05	0.9
   370	1.11047e-05	0.9
   371	1.11052e-05	0.9
   372	1.11057e-05	0.9
   373	1.11061e-05	0.9
   374	1.11066e-05	0.9
   375	1.11071e-05	0.9
   376	1.11076e-05	0.9
   377	1.1108e-05	0.9
   378	1.11085e-05	0.9
   379	1.1109e-05	0.9
   380	1.11094e-05	0.9
   381	1.11099e-05	0.9
   382	1.11103e-05	0.9
   383	1.11108e-05	0.9
   384	1.11112e-05	0.9
   385	1.11117e-05	0.9
   386	1.11121e-05	0.9
   387	1.11125e-05	0.9
   388	1.1113e-05	0.9
   389	1.11134e-05	0.9
   390	1.11138e-05	0.9
   391	1.11142e-05	0.9
   392	1.11147e-05	0.9
   393	1.11151e-05	0.9
   394	1.11155e-05	0.9
   395	1.11159e-05	0.9
   396	1.11163e-05	0.9
   397	1.11167e-05	0.9
   398	1.11171e-05	0.9
   399	1.11175e-05	0.9
   400	1.11179e-05	0.9
   401	1.11183e-05	0.9
   402	1.11187e-05	0.9
   403	1.11191e-05	0.9
   404	1.11195e-05	0.9
   405	1.11198e-05	0.9
   406	1.11202e-05	0.9
   407	1.11206e-05	0.9
   408	1.1121e-05	0.9
   409	1.11213e-05	0.9
   410	1.11217e-05	0.9
   411	1.11221e-05	0.9
   412	1.11224e-05	0.9
   413	1.11228e-05	0.9
   414	1.11232e-05	0.9
   415	1.11235e-05	0.9
   416	1.11239e-05	0.9
   417	1.11242e-05	0.9
   418	1.11246e-05	0.9
   419	1.11249e-05	0.9
   420	1.11253e-05	0.9
   421	1.11256e-05	0.9
   422	1.11259e-05	0.9
   423	1.11263e-05	0.9
   424	1.11266e-05	0.9
   425	1.11269e-05	0.9
   426	1.11273e-05	0.9
   427	1.11276e-05	0.9
   428	1.11279e-05	0.9
   429	1.11283e-05	0.9
   430	1.11286e-05	0.9
   431	1.11289e-05	0.9
   432	1.11292e-05	0.9
   433	1.11295e-05	0.9
   434	1.11298e-05	0.9
   435	1.11301e-05	0.9
   436	1.11305e-05	0.9
   437	1.11308e-05	0.9
   438	1.11311e-05	0.9
   439	1.11314e-05	0.9
   440	1.11317e-05	0.9
   441	1.1132e-05	0.9
   442	1.11323e-05	0.9
   443	1.11325e-05	0.9
   444	1.11328e-05	0.9
   445	1.11331e-05	0.9
   446	1.11334e-05	0.9
   447	1.11337e-05	0.9
   448	1.1134e-05	0.9
   449	1.11343e-05	0.9
   450	1.11345e-05	0.9
   451	1.11348e-05	0.9
   452	1.11351e-05	0.9
   453	1.11354e-05	0.9
   454	1.11356e-05	0.9
   455	1.11359e-05	0.9
   456	1.11362e-05	0.9
   457	1.11364e-05	0.9
   458	1.11367e-05	0.9
   459	1.1137e-05	0.9
   460	1.11372e-05	0.9
   461	1.11375e-05	0.9
   462	1.11377e-05	0.9
   463	1.1138e-05	0.9
   464	1.11382e-05	0.9
   465	1.11385e-05	0.9
   466	1.11388e-05	0.9
   467	1.1139e-05	0.9
   468	1.11392e-05	0.9
   469	1.11395e-05	0.9
   470	1.11397e-05	0.9
   471	1.114e-05	0.9
   472	1.11402e-05	0.9
   473	1.11405e-05	0.9
   474	1.11407e-05	0.9
   475	1.11409e-05	0.9
   476	1.11412e-05	0.9
   477	1.11414e-05	0.9
   478	1.11416e-05	0.9
   479	1.11419e-05	0.9
   480	1.11421e-05	0.9
   481	1.11423e-05	0.9
   482	1.11425e-05	0.9
   483	1.11427e-05	0.9
   484	1.1143e-05	0.9
   485	1.11432e-05	0.9
   486	1.11434e-05	0.9
   487	1.11436e-05	0.9
   488	1.11438e-05	0.9
   489	1.11441e-05	0.9
   490	1.11443e-05	0.9
   491	1.11445e-05	0.9
   492	1.11447e-05	0.9
   493	1.11449e-05	0.9
   494	1.11451e-05	0.9
   495	1.11453e-05	0.9
   496	1.11455e-05	0.9

Measurement: rout
  step	(1.3-0.5)/(id2-id1)
     1	-568058
     2	-427073
     3	-385056
     4	-374820
     5	-378034
     6	-387802
     7	-400964
     8	-415881
     9	-431627
    10	-447659
    11	-463648
    12	-479399
    13	-494800
    14	-509793
    15	-524354
    16	-538480
    17	-552182
    18	-565480
    19	-578398
    20	-590960
    21	-603194
    22	-615123
    23	-626772
    24	-638162
    25	-649315
    26	-660249
    27	-670979
    28	-681522
    29	-691891
    30	-702100
    31	-712158
    32	-722075
    33	-731861
    34	-741523
    35	-751068
    36	-760504
    37	-769835
    38	-779069
    39	-788208
    40	-797257
    41	-806222
    42	-815104
    43	-823908
    44	-832637
    45	-841292
    46	-849878
    47	-858397
    48	-866848
    49	-875237
    50	-883565
    51	-891833
    52	-900043
    53	-908196
    54	-916293
    55	-924338
    56	-932329
    57	-940270
    58	-948159
    59	-955999
    60	-963792
    61	-971537
    62	-979235
    63	-986887
    64	-994495
    65	-1.00206e+06
    66	-1.00958e+06
    67	-1.01706e+06
    68	-1.02449e+06
    69	-1.03189e+06
    70	-1.03924e+06
    71	-1.04656e+06
    72	-1.05383e+06
    73	-1.06107e+06
    74	-1.06826e+06
    75	-1.07542e+06
    76	-1.08255e+06
    77	-1.08963e+06
    78	-1.09668e+06
    79	-1.10369e+06
    80	-1.11067e+06
    81	-1.11761e+06
    82	-1.12452e+06
    83	-1.13139e+06
    84	-1.13823e+06
    85	-1.14503e+06
    86	-1.15181e+06
    87	-1.15855e+06
    88	-1.16525e+06
    89	-1.17193e+06
    90	-1.17857e+06
    91	-1.18518e+06
    92	-1.19177e+06
    93	-1.19832e+06
    94	-1.20484e+06
    95	-1.21133e+06
    96	-1.21779e+06
    97	-1.22422e+06
    98	-1.23063e+06
    99	-1.237e+06
   100	-1.24335e+06
   101	-1.24967e+06
   102	-1.25596e+06
   103	-1.26222e+06
   104	-1.26846e+06
   105	-1.27467e+06
   106	-1.28086e+06
   107	-1.28701e+06
   108	-1.29314e+06
   109	-1.29925e+06
   110	-1.30533e+06
   111	-1.31139e+06
   112	-1.31742e+06
   113	-1.32342e+06
   114	-1.32941e+06
   115	-1.33537e+06
   116	-1.3413e+06
   117	-1.34721e+06
   118	-1.3531e+06
   119	-1.35896e+06
   120	-1.36481e+06
   121	-1.37063e+06
   122	-1.37642e+06
   123	-1.3822e+06
   124	-1.38795e+06
   125	-1.39369e+06
   126	-1.3994e+06
   127	-1.40509e+06
   128	-1.41076e+06
   129	-1.41641e+06
   130	-1.42204e+06
   131	-1.42764e+06
   132	-1.43323e+06
   133	-1.4388e+06
   134	-1.44435e+06
   135	-1.44988e+06
   136	-1.45539e+06
   137	-1.46088e+06
   138	-1.46636e+06
   139	-1.47181e+06
   140	-1.47724e+06
   141	-1.48266e+06
   142	-1.48806e+06
   143	-1.49345e+06
   144	-1.49881e+06
   145	-1.50416e+06
   146	-1.50949e+06
   147	-1.5148e+06
   148	-1.5201e+06
   149	-1.52538e+06
   150	-1.53064e+06
   151	-1.53589e+06
   152	-1.54112e+06
   153	-1.54633e+06
   154	-1.55153e+06
   155	-1.55671e+06
   156	-1.56188e+06
   157	-1.56704e+06
   158	-1.57217e+06
   159	-1.57729e+06
   160	-1.5824e+06
   161	-1.5875e+06
   162	-1.59257e+06
   163	-1.59764e+06
   164	-1.60269e+06
   165	-1.60772e+06
   166	-1.61275e+06
   167	-1.61775e+06
   168	-1.62275e+06
   169	-1.62773e+06
   170	-1.63269e+06
   171	-1.63765e+06
   172	-1.64259e+06
   173	-1.64752e+06
   174	-1.65243e+06
   175	-1.65734e+06
   176	-1.66222e+06
   177	-1.6671e+06
   178	-1.67197e+06
   179	-1.67682e+06
   180	-1.68166e+06
   181	-1.68649e+06
   182	-1.69131e+06
   183	-1.69611e+06
   184	-1.70091e+06
   185	-1.70569e+06
   186	-1.71046e+06
   187	-1.71522e+06
   188	-1.71997e+06
   189	-1.7247e+06
   190	-1.72943e+06
   191	-1.73415e+06
   192	-1.73885e+06
   193	-1.74355e+06
   194	-1.74823e+06
   195	-1.7529e+06
   196	-1.75757e+06
   197	-1.76222e+06
   198	-1.76687e+06
   199	-1.7715e+06
   200	-1.77612e+06
   201	-1.78074e+06
   202	-1.78534e+06
   203	-1.78993e+06
   204	-1.79452e+06
   205	-1.79909e+06
   206	-1.80366e+06
   207	-1.80822e+06
   208	-1.81277e+06
   209	-1.8173e+06
   210	-1.82183e+06
   211	-1.82636e+06
   212	-1.83087e+06
   213	-1.83537e+06
   214	-1.83987e+06
   215	-1.84436e+06
   216	-1.84884e+06
   217	-1.85331e+06
   218	-1.85777e+06
   219	-1.86222e+06
   220	-1.86667e+06
   221	-1.87111e+06
   222	-1.87554e+06
   223	-1.87996e+06
   224	-1.88437e+06
   225	-1.88878e+06
   226	-1.89318e+06
   227	-1.89757e+06
   228	-1.90196e+06
   229	-1.90633e+06
   230	-1.9107e+06
   231	-1.91506e+06
   232	-1.91942e+06
   233	-1.92377e+06
   234	-1.92811e+06
   235	-1.93244e+06
   236	-1.93677e+06
   237	-1.94109e+06
   238	-1.94541e+06
   239	-1.94971e+06
   240	-1.95401e+06
   241	-1.9583e+06
   242	-1.96259e+06
   243	-1.96687e+06
   244	-1.97115e+06
   245	-1.97542e+06
   246	-1.97968e+06
   247	-1.98393e+06
   248	-1.98819e+06
   249	-1.99243e+06
   250	-1.99667e+06
   251	-2.0009e+06
   252	-2.00513e+06
   253	-2.00935e+06
   254	-2.01356e+06
   255	-2.01777e+06
   256	-2.02198e+06
   257	-2.02618e+06
   258	-2.03037e+06
   259	-2.03455e+06
   260	-2.03874e+06
   261	-2.04291e+06
   262	-2.04708e+06
   263	-2.05125e+06
   264	-2.05541e+06
   265	-2.05956e+06
   266	-2.06372e+06
   267	-2.06786e+06
   268	-2.072e+06
   269	-2.07614e+06
   270	-2.08027e+06
   271	-2.08439e+06
   272	-2.08852e+06
   273	-2.09263e+06
   274	-2.09674e+06
   275	-2.10085e+06
   276	-2.10495e+06
   277	-2.10905e+06
   278	-2.11314e+06
   279	-2.11723e+06
   280	-2.12131e+06
   281	-2.1254e+06
   282	-2.12947e+06
   283	-2.13355e+06
   284	-2.13761e+06
   285	-2.14167e+06
   286	-2.14574e+06
   287	-2.14979e+06
   288	-2.15384e+06
   289	-2.15789e+06
   290	-2.16194e+06
   291	-2.16597e+06
   292	-2.17001e+06
   293	-2.17404e+06
   294	-2.17806e+06
   295	-2.18209e+06
   296	-2.18611e+06
   297	-2.19013e+06
   298	-2.19414e+06
   299	-2.19815e+06
   300	-2.20216e+06
   301	-2.20616e+06
   302	-2.21015e+06
   303	-2.21415e+06
   304	-2.21814e+06
   305	-2.22213e+06
   306	-2.22611e+06
   307	-2.2301e+06
   308	-2.23408e+06
   309	-2.23805e+06
   310	-2.24203e+06
   311	-2.24599e+06
   312	-2.24996e+06
   313	-2.25392e+06
   314	-2.25788e+06
   315	-2.26183e+06
   316	-2.26579e+06
   317	-2.26974e+06
   318	-2.27369e+06
   319	-2.27764e+06
   320	-2.28158e+06
   321	-2.28552e+06
   322	-2.28945e+06
   323	-2.29338e+06
   324	-2.29731e+06
   325	-2.30125e+06
   326	-2.30517e+06
   327	-2.30909e+06
   328	-2.31301e+06
   329	-2.31693e+06
   330	-2.32085e+06
   331	-2.32476e+06
   332	-2.32867e+06
   333	-2.33258e+06
   334	-2.33648e+06
   335	-2.34038e+06
   336	-2.34429e+06
   337	-2.34819e+06
   338	-2.35208e+06
   339	-2.35597e+06
   340	-2.35987e+06
   341	-2.36376e+06
   342	-2.36764e+06
   343	-2.37153e+06
   344	-2.37541e+06
   345	-2.37928e+06
   346	-2.38316e+06
   347	-2.38704e+06
   348	-2.39091e+06
   349	-2.39478e+06
   350	-2.39866e+06
   351	-2.40252e+06
   352	-2.40639e+06
   353	-2.41026e+06
   354	-2.41412e+06
   355	-2.41798e+06
   356	-2.42184e+06
   357	-2.4257e+06
   358	-2.42955e+06
   359	-2.4334e+06
   360	-2.43725e+06
   361	-2.44111e+06
   362	-2.44496e+06
   363	-2.4488e+06
   364	-2.45265e+06
   365	-2.45649e+06
   366	-2.46033e+06
   367	-2.46417e+06
   368	-2.468e+06
   369	-2.47185e+06
   370	-2.47568e+06
   371	-2.47951e+06
   372	-2.48335e+06
   373	-2.48717e+06
   374	-2.49101e+06
   375	-2.49484e+06
   376	-2.49866e+06
   377	-2.50249e+06
   378	-2.50632e+06
   379	-2.51014e+06
   380	-2.51395e+06
   381	-2.51777e+06
   382	-2.52159e+06
   383	-2.52541e+06
   384	-2.52923e+06
   385	-2.53304e+06
   386	-2.53685e+06
   387	-2.54067e+06
   388	-2.54448e+06
   389	-2.54829e+06
   390	-2.5521e+06
   391	-2.5559e+06
   392	-2.55972e+06
   393	-2.56352e+06
   394	-2.56733e+06
   395	-2.57113e+06
   396	-2.57493e+06
   397	-2.57873e+06
   398	-2.58254e+06
   399	-2.58634e+06
   400	-2.59013e+06
   401	-2.59394e+06
   402	-2.59773e+06
   403	-2.60152e+06
   404	-2.60532e+06
   405	-2.60912e+06
   406	-2.61292e+06
   407	-2.61671e+06
   408	-2.6205e+06
   409	-2.62429e+06
   410	-2.62808e+06
   411	-2.63187e+06
   412	-2.63566e+06
   413	-2.63945e+06
   414	-2.64324e+06
   415	-2.64703e+06
   416	-2.65081e+06
   417	-2.65459e+06
   418	-2.65838e+06
   419	-2.66217e+06
   420	-2.66595e+06
   421	-2.66974e+06
   422	-2.67351e+06
   423	-2.6773e+06
   424	-2.68108e+06
   425	-2.68486e+06
   426	-2.68864e+06
   427	-2.69242e+06
   428	-2.6962e+06
   429	-2.69999e+06
   430	-2.70376e+06
   431	-2.70754e+06
   432	-2.71132e+06
   433	-2.71509e+06
   434	-2.71887e+06
   435	-2.72265e+06
   436	-2.72643e+06
   437	-2.7302e+06
   438	-2.73398e+06
   439	-2.73776e+06
   440	-2.74153e+06
   441	-2.7453e+06
   442	-2.74908e+06
   443	-2.75286e+06
   444	-2.75663e+06
   445	-2.76041e+06
   446	-2.76418e+06
   447	-2.76796e+06
   448	-2.77172e+06
   449	-2.7755e+06
   450	-2.77927e+06
   451	-2.78305e+06
   452	-2.78682e+06
   453	-2.79059e+06
   454	-2.79436e+06
   455	-2.79814e+06
   456	-2.80191e+06
   457	-2.80567e+06
   458	-2.80945e+06
   459	-2.81323e+06
   460	-2.81699e+06
   461	-2.82077e+06
   462	-2.82454e+06
   463	-2.82831e+06
   464	-2.83209e+06
   465	-2.83585e+06
   466	-2.83962e+06
   467	-2.8434e+06
   468	-2.84717e+06
   469	-2.85094e+06
   470	-2.85472e+06
   471	-2.85848e+06
   472	-2.86226e+06
   473	-2.86603e+06
   474	-2.8698e+06
   475	-2.87357e+06
   476	-2.87735e+06
   477	-2.88112e+06
   478	-2.88489e+06
   479	-2.88867e+06
   480	-2.89243e+06
   481	-2.89621e+06
   482	-2.89999e+06
   483	-2.90377e+06
   484	-2.90754e+06
   485	-2.91131e+06
   486	-2.91508e+06
   487	-2.91886e+06
   488	-2.92264e+06
   489	-2.92641e+06
   490	-2.93018e+06
   491	-2.93397e+06
   492	-2.93774e+06
   493	-2.94151e+06
   494	-2.94529e+06
   495	-2.94908e+06
   496	-2.95285e+06

Measurement: lambda
  step	1/(id0*rout)
     1	-0.623546
     2	-0.52581
     3	-0.463461
     4	-0.419999
     5	-0.387327
     6	-0.361362
     7	-0.339888
     8	-0.321611
     9	-0.305725
    10	-0.291699
    11	-0.279167
    12	-0.267864
    13	-0.257594
    14	-0.248205
    15	-0.23958
    16	-0.231621
    17	-0.22425
    18	-0.217402
    19	-0.21102
    20	-0.205058
    21	-0.199475
    22	-0.194235
    23	-0.189307
    24	-0.184664
    25	-0.180282
    26	-0.176139
    27	-0.172216
    28	-0.168497
    29	-0.164965
    30	-0.161607
    31	-0.15841
    32	-0.155363
    33	-0.152455
    34	-0.149678
    35	-0.147022
    36	-0.14448
    37	-0.142044
    38	-0.139709
    39	-0.137467
    40	-0.135313
    41	-0.133243
    42	-0.131251
    43	-0.129333
    44	-0.127484
    45	-0.125702
    46	-0.123983
    47	-0.122322
    48	-0.120718
    49	-0.119168
    50	-0.117668
    51	-0.116216
    52	-0.11481
    53	-0.113448
    54	-0.112128
    55	-0.110847
    56	-0.109605
    57	-0.108398
    58	-0.107227
    59	-0.106088
    60	-0.104981
    61	-0.103905
    62	-0.102858
    63	-0.101839
    64	-0.100846
    65	-0.0998793
    66	-0.0989373
    67	-0.0980191
    68	-0.0971238
    69	-0.0962503
    70	-0.095398
    71	-0.0945662
    72	-0.093754
    73	-0.0929607
    74	-0.0921856
    75	-0.0914282
    76	-0.0906876
    77	-0.0899635
    78	-0.0892552
    79	-0.0885623
    80	-0.087884
    81	-0.0872202
    82	-0.0865701
    83	-0.0859334
    84	-0.0853098
    85	-0.0846986
    86	-0.0840996
    87	-0.0835125
    88	-0.0829367
    89	-0.082372
    90	-0.081818
    91	-0.0812745
    92	-0.0807411
    93	-0.0802175
    94	-0.0797035
    95	-0.0791986
    96	-0.0787029
    97	-0.0782159
    98	-0.0777373
    99	-0.0772671
   100	-0.0768049
   101	-0.0763506
   102	-0.0759038
   103	-0.0754645
   104	-0.0750325
   105	-0.0746074
   106	-0.0741891
   107	-0.0737777
   108	-0.0733727
   109	-0.072974
   110	-0.0725815
   111	-0.0721952
   112	-0.0718146
   113	-0.0714399
   114	-0.0710706
   115	-0.0707069
   116	-0.0703486
   117	-0.0699954
   118	-0.0696473
   119	-0.0693043
   120	-0.0689661
   121	-0.0686325
   122	-0.0683038
   123	-0.0679795
   124	-0.0676596
   125	-0.0673441
   126	-0.0670328
   127	-0.0667258
   128	-0.0664227
   129	-0.0661236
   130	-0.0658285
   131	-0.0655372
   132	-0.0652495
   133	-0.0649655
   134	-0.0646852
   135	-0.0644082
   136	-0.0641348
   137	-0.0638647
   138	-0.0635978
   139	-0.0633342
   140	-0.0630739
   141	-0.0628165
   142	-0.0625622
   143	-0.062311
   144	-0.0620625
   145	-0.0618171
   146	-0.0615744
   147	-0.0613345
   148	-0.0610973
   149	-0.0608628
   150	-0.0606307
   151	-0.0604015
   152	-0.0601745
   153	-0.0599502
   154	-0.0597281
   155	-0.0595086
   156	-0.0592913
   157	-0.0590763
   158	-0.0588636
   159	-0.0586532
   160	-0.0584449
   161	-0.0582387
   162	-0.0580346
   163	-0.0578327
   164	-0.0576326
   165	-0.0574347
   166	-0.0572386
   167	-0.0570446
   168	-0.0568524
   169	-0.0566621
   170	-0.0564737
   171	-0.0562871
   172	-0.0561022
   173	-0.055919
   174	-0.0557375
   175	-0.0555579
   176	-0.0553799
   177	-0.0552034
   178	-0.0550286
   179	-0.0548555
   180	-0.0546838
   181	-0.0545137
   182	-0.0543452
   183	-0.0541781
   184	-0.0540124
   185	-0.0538482
   186	-0.0536855
   187	-0.0535242
   188	-0.0533643
   189	-0.0532058
   190	-0.0530485
   191	-0.0528925
   192	-0.052738
   193	-0.0525847
   194	-0.0524326
   195	-0.0522819
   196	-0.0521323
   197	-0.051984
   198	-0.0518368
   199	-0.0516909
   200	-0.051546
   201	-0.0514024
   202	-0.05126
   203	-0.0511186
   204	-0.0509782
   205	-0.0508391
   206	-0.050701
   207	-0.0505639
   208	-0.0504278
   209	-0.0502929
   210	-0.0501589
   211	-0.0500258
   212	-0.0498939
   213	-0.0497629
   214	-0.0496328
   215	-0.0495037
   216	-0.0493756
   217	-0.0492483
   218	-0.049122
   219	-0.0489966
   220	-0.0488721
   221	-0.0487485
   222	-0.0486257
   223	-0.0485037
   224	-0.0483827
   225	-0.0482625
   226	-0.0481432
   227	-0.0480246
   228	-0.0479068
   229	-0.0477899
   230	-0.0476737
   231	-0.0475583
   232	-0.0474437
   233	-0.0473298
   234	-0.0472166
   235	-0.0471043
   236	-0.0469926
   237	-0.0468817
   238	-0.0467715
   239	-0.0466621
   240	-0.0465533
   241	-0.0464452
   242	-0.0463377
   243	-0.046231
   244	-0.0461248
   245	-0.0460195
   246	-0.0459147
   247	-0.0458107
   248	-0.0457071
   249	-0.0456043
   250	-0.0455021
   251	-0.0454005
   252	-0.0452996
   253	-0.0451991
   254	-0.0450994
   255	-0.0450002
   256	-0.0449016
   257	-0.0448036
   258	-0.0447061
   259	-0.0446092
   260	-0.0445129
   261	-0.0444171
   262	-0.0443219
   263	-0.0442272
   264	-0.0441332
   265	-0.0440395
   266	-0.0439463
   267	-0.0438538
   268	-0.0437618
   269	-0.0436703
   270	-0.0435792
   271	-0.0434888
   272	-0.0433986
   273	-0.0433091
   274	-0.0432201
   275	-0.0431315
   276	-0.0430434
   277	-0.0429558
   278	-0.0428686
   279	-0.0427819
   280	-0.0426957
   281	-0.0426098
   282	-0.0425245
   283	-0.0424395
   284	-0.0423551
   285	-0.0422712
   286	-0.0421875
   287	-0.0421043
   288	-0.0420216
   289	-0.0419393
   290	-0.0418573
   291	-0.0417759
   292	-0.0416947
   293	-0.0416141
   294	-0.0415338
   295	-0.0414539
   296	-0.0413743
   297	-0.0412953
   298	-0.0412165
   299	-0.0411382
   300	-0.0410602
   301	-0.0409825
   302	-0.0409054
   303	-0.0408285
   304	-0.040752
   305	-0.0406759
   306	-0.0406001
   307	-0.0405247
   308	-0.0404496
   309	-0.040375
   310	-0.0403005
   311	-0.0402265
   312	-0.0401529
   313	-0.0400794
   314	-0.0400065
   315	-0.0399338
   316	-0.0398614
   317	-0.0397894
   318	-0.0397178
   319	-0.0396463
   320	-0.0395752
   321	-0.0395044
   322	-0.039434
   323	-0.0393639
   324	-0.0392941
   325	-0.0392244
   326	-0.0391553
   327	-0.0390864
   328	-0.0390177
   329	-0.0389494
   330	-0.0388813
   331	-0.0388137
   332	-0.0387461
   333	-0.0386789
   334	-0.0386121
   335	-0.0385455
   336	-0.0384791
   337	-0.038413
   338	-0.0383473
   339	-0.0382818
   340	-0.0382165
   341	-0.0381514
   342	-0.0380868
   343	-0.0380223
   344	-0.0379581
   345	-0.0378943
   346	-0.0378306
   347	-0.0377671
   348	-0.0377041
   349	-0.0376411
   350	-0.0375784
   351	-0.037516
   352	-0.0374538
   353	-0.0373919
   354	-0.0373302
   355	-0.0372687
   356	-0.0372075
   357	-0.0371465
   358	-0.0370858
   359	-0.0370253
   360	-0.0369651
   361	-0.036905
   362	-0.0368452
   363	-0.0367856
   364	-0.0367262
   365	-0.0366671
   366	-0.0366082
   367	-0.0365494
   368	-0.036491
   369	-0.0364327
   370	-0.0363746
   371	-0.0363168
   372	-0.0362592
   373	-0.0362018
   374	-0.0361446
   375	-0.0360875
   376	-0.0360307
   377	-0.0359742
   378	-0.0359177
   379	-0.0358616
   380	-0.0358056
   381	-0.0357498
   382	-0.0356943
   383	-0.0356389
   384	-0.0355837
   385	-0.0355286
   386	-0.0354739
   387	-0.0354192
   388	-0.0353648
   389	-0.0353105
   390	-0.0352565
   391	-0.0352027
   392	-0.0351489
   393	-0.0350954
   394	-0.0350421
   395	-0.034989
   396	-0.0349361
   397	-0.0348834
   398	-0.0348307
   399	-0.0347782
   400	-0.034726
   401	-0.0346739
   402	-0.034622
   403	-0.0345703
   404	-0.0345187
   405	-0.0344673
   406	-0.0344161
   407	-0.034365
   408	-0.0343142
   409	-0.0342634
   410	-0.0342128
   411	-0.0341624
   412	-0.0341123
   413	-0.0340622
   414	-0.0340122
   415	-0.0339625
   416	-0.0339129
   417	-0.0338636
   418	-0.0338143
   419	-0.0337651
   420	-0.0337161
   421	-0.0336673
   422	-0.0336187
   423	-0.0335701
   424	-0.0335218
   425	-0.0334736
   426	-0.0334256
   427	-0.0333776
   428	-0.0333298
   429	-0.0332822
   430	-0.0332347
   431	-0.0331874
   432	-0.0331402
   433	-0.0330932
   434	-0.0330463
   435	-0.0329995
   436	-0.0329528
   437	-0.0329064
   438	-0.03286
   439	-0.0328138
   440	-0.0327678
   441	-0.0327219
   442	-0.0326761
   443	-0.0326304
   444	-0.0325849
   445	-0.0325394
   446	-0.0324942
   447	-0.032449
   448	-0.0324041
   449	-0.0323592
   450	-0.0323144
   451	-0.0322698
   452	-0.0322253
   453	-0.032181
   454	-0.0321368
   455	-0.0320926
   456	-0.0320487
   457	-0.0320049
   458	-0.0319612
   459	-0.0319174
   460	-0.031874
   461	-0.0318306
   462	-0.0317874
   463	-0.0317443
   464	-0.0317013
   465	-0.0316585
   466	-0.0316157
   467	-0.031573
   468	-0.0315305
   469	-0.0314881
   470	-0.0314458
   471	-0.0314037
   472	-0.0313616
   473	-0.0313197
   474	-0.0312778
   475	-0.0312361
   476	-0.0311944
   477	-0.0311529
   478	-0.0311116
   479	-0.0310702
   480	-0.0310292
   481	-0.0309881
   482	-0.0309471
   483	-0.0309062
   484	-0.0308655
   485	-0.0308249
   486	-0.0307844
   487	-0.030744
   488	-0.0307036
   489	-0.0306635
   490	-0.0306234
   491	-0.0305834
   492	-0.0305435
   493	-0.0305038
   494	-0.030464
   495	-0.0304244
   496	-0.030385

Total elapsed time: 14.001 seconds.

