LTspice 24.0.12 for Windows
Circuit: * C:\Users\tomto\Documents\skola\Skola\NAO\cv1\N-mos.asc
Start Time: Wed Mar 12 12:36:36 2025
solver = Normal
Maximum thread count: 16



Warning: Pd = 0 is less than W.
Warning: Ps = 0 is less than W.
.step lset=1e-07



.step lset=1.2e-07



.step lset=1.4e-07



.step lset=1.6e-07



.step lset=1.8e-07



.step lset=2e-07



.step lset=2.2e-07



.step lset=2.4e-07



.step lset=2.6e-07



.step lset=2.8e-07



.step lset=3e-07



.step lset=3.2e-07



.step lset=3.4e-07



.step lset=3.6e-07



.step lset=3.8e-07



.step lset=4e-07



.step lset=4.2e-07



.step lset=4.4e-07



.step lset=4.6e-07



.step lset=4.8e-07



.step lset=5e-07



.step lset=5.2e-07



.step lset=5.4e-07



.step lset=5.6e-07



.step lset=5.8e-07



.step lset=6e-07



.step lset=6.2e-07



.step lset=6.4e-07



.step lset=6.6e-07



.step lset=6.8e-07



.step lset=7e-07



.step lset=7.2e-07



.step lset=7.4e-07



.step lset=7.6e-07



.step lset=7.8e-07



.step lset=8e-07



.step lset=8.20000000000001e-07



.step lset=8.40000000000001e-07



.step lset=8.60000000000001e-07



.step lset=8.80000000000001e-07



.step lset=9.00000000000001e-07



.step lset=9.20000000000001e-07



.step lset=9.40000000000001e-07



.step lset=9.60000000000001e-07



.step lset=9.80000000000001e-07



.step lset=1e-06



.step lset=1.02e-06



.step lset=1.04e-06



.step lset=1.06e-06



.step lset=1.08e-06



.step lset=1.1e-06



.step lset=1.12e-06



.step lset=1.14e-06



.step lset=1.16e-06



.step lset=1.18e-06



.step lset=1.2e-06



.step lset=1.22e-06



.step lset=1.24e-06



.step lset=1.26e-06



.step lset=1.28e-06



.step lset=1.3e-06



.step lset=1.32e-06



.step lset=1.34e-06



.step lset=1.36e-06



.step lset=1.38e-06



.step lset=1.4e-06



.step lset=1.42e-06



.step lset=1.44e-06



.step lset=1.46e-06



.step lset=1.48e-06



.step lset=1.5e-06



.step lset=1.52e-06



.step lset=1.54e-06



.step lset=1.56e-06



.step lset=1.58e-06



.step lset=1.6e-06



.step lset=1.62e-06



.step lset=1.64e-06



.step lset=1.66e-06



.step lset=1.68e-06



.step lset=1.7e-06



.step lset=1.72e-06



.step lset=1.74e-06



.step lset=1.76e-06



.step lset=1.78e-06



.step lset=1.8e-06



.step lset=1.82e-06



.step lset=1.84e-06



.step lset=1.86e-06



.step lset=1.88e-06



.step lset=1.9e-06



.step lset=1.92e-06



.step lset=1.94e-06



.step lset=1.96e-06



.step lset=1.98e-06



.step lset=2e-06



.step lset=2.02e-06



.step lset=2.04e-06



.step lset=2.06e-06



.step lset=2.08e-06



.step lset=2.1e-06



.step lset=2.12e-06



.step lset=2.14e-06



.step lset=2.16e-06



.step lset=2.18e-06



.step lset=2.2e-06



.step lset=2.22e-06



.step lset=2.24e-06



.step lset=2.26e-06



.step lset=2.28e-06



.step lset=2.3e-06



.step lset=2.32e-06



.step lset=2.34e-06



.step lset=2.36e-06



.step lset=2.38e-06



.step lset=2.4e-06



.step lset=2.42e-06



.step lset=2.44e-06



.step lset=2.46e-06



.step lset=2.48e-06



.step lset=2.5e-06



.step lset=2.52e-06



.step lset=2.54e-06



.step lset=2.56e-06



.step lset=2.58e-06



.step lset=2.6e-06



.step lset=2.61999999999999e-06



.step lset=2.63999999999999e-06



.step lset=2.65999999999999e-06



.step lset=2.67999999999999e-06



.step lset=2.69999999999999e-06



.step lset=2.71999999999999e-06



.step lset=2.73999999999999e-06



.step lset=2.75999999999999e-06



.step lset=2.77999999999999e-06



.step lset=2.79999999999999e-06



.step lset=2.81999999999999e-06



.step lset=2.83999999999999e-06



.step lset=2.85999999999999e-06



.step lset=2.87999999999999e-06



.step lset=2.89999999999999e-06



.step lset=2.91999999999999e-06



.step lset=2.93999999999999e-06



.step lset=2.95999999999999e-06



.step lset=2.97999999999999e-06



.step lset=2.99999999999999e-06



.step lset=3.01999999999999e-06



.step lset=3.03999999999999e-06



.step lset=3.05999999999999e-06



.step lset=3.07999999999999e-06



.step lset=3.09999999999999e-06



.step lset=3.11999999999999e-06



.step lset=3.13999999999999e-06



.step lset=3.15999999999999e-06



.step lset=3.17999999999999e-06



.step lset=3.19999999999999e-06



.step lset=3.21999999999999e-06



.step lset=3.23999999999999e-06



.step lset=3.25999999999999e-06



.step lset=3.27999999999999e-06



.step lset=3.29999999999999e-06



.step lset=3.31999999999999e-06



.step lset=3.33999999999999e-06



.step lset=3.35999999999999e-06



.step lset=3.37999999999999e-06



.step lset=3.39999999999999e-06



.step lset=3.41999999999999e-06



.step lset=3.43999999999999e-06



.step lset=3.45999999999999e-06



.step lset=3.47999999999999e-06



.step lset=3.49999999999999e-06



.step lset=3.51999999999999e-06



.step lset=3.53999999999999e-06



.step lset=3.55999999999999e-06



.step lset=3.57999999999999e-06



.step lset=3.59999999999999e-06



.step lset=3.61999999999999e-06



.step lset=3.63999999999999e-06



.step lset=3.65999999999998e-06



.step lset=3.67999999999998e-06



.step lset=3.69999999999998e-06



.step lset=3.71999999999998e-06



.step lset=3.73999999999998e-06



.step lset=3.75999999999998e-06



.step lset=3.77999999999998e-06



.step lset=3.79999999999998e-06



.step lset=3.81999999999998e-06



.step lset=3.83999999999998e-06



.step lset=3.85999999999998e-06



.step lset=3.87999999999998e-06



.step lset=3.89999999999998e-06



.step lset=3.91999999999998e-06



.step lset=3.93999999999998e-06



.step lset=3.95999999999998e-06



.step lset=3.97999999999998e-06



.step lset=3.99999999999998e-06



.step lset=4.01999999999998e-06



.step lset=4.03999999999998e-06



.step lset=4.05999999999998e-06



.step lset=4.07999999999998e-06



.step lset=4.09999999999998e-06



.step lset=4.11999999999998e-06



.step lset=4.13999999999998e-06



.step lset=4.15999999999998e-06



.step lset=4.17999999999998e-06



.step lset=4.19999999999998e-06



.step lset=4.21999999999998e-06



.step lset=4.23999999999998e-06



.step lset=4.25999999999998e-06



.step lset=4.27999999999998e-06



.step lset=4.29999999999998e-06



.step lset=4.31999999999998e-06



.step lset=4.33999999999998e-06



.step lset=4.35999999999998e-06



.step lset=4.37999999999998e-06



.step lset=4.39999999999998e-06



.step lset=4.41999999999998e-06



.step lset=4.43999999999998e-06



.step lset=4.45999999999998e-06



.step lset=4.47999999999998e-06



.step lset=4.49999999999998e-06



.step lset=4.51999999999998e-06



.step lset=4.53999999999998e-06



.step lset=4.55999999999998e-06



.step lset=4.57999999999998e-06



.step lset=4.59999999999998e-06



.step lset=4.61999999999998e-06



.step lset=4.63999999999998e-06



.step lset=4.65999999999998e-06



.step lset=4.67999999999998e-06



.step lset=4.69999999999998e-06



.step lset=4.71999999999998e-06



.step lset=4.73999999999997e-06



.step lset=4.75999999999997e-06



.step lset=4.77999999999997e-06



.step lset=4.79999999999997e-06



.step lset=4.81999999999997e-06



.step lset=4.83999999999997e-06



.step lset=4.85999999999997e-06



.step lset=4.87999999999997e-06



.step lset=4.89999999999997e-06



.step lset=4.91999999999997e-06



.step lset=4.93999999999997e-06



.step lset=4.95999999999997e-06



.step lset=4.97999999999997e-06



.step lset=4.99999999999997e-06



.step lset=5.01999999999997e-06



.step lset=5.03999999999997e-06



.step lset=5.05999999999997e-06



.step lset=5.07999999999997e-06



.step lset=5.09999999999997e-06



.step lset=5.11999999999997e-06



.step lset=5.13999999999997e-06



.step lset=5.15999999999997e-06



.step lset=5.17999999999997e-06



.step lset=5.19999999999997e-06



.step lset=5.21999999999997e-06



.step lset=5.23999999999997e-06



.step lset=5.25999999999997e-06



.step lset=5.27999999999997e-06



.step lset=5.29999999999997e-06



.step lset=5.31999999999997e-06



.step lset=5.33999999999997e-06



.step lset=5.35999999999997e-06



.step lset=5.37999999999997e-06



.step lset=5.39999999999997e-06



.step lset=5.41999999999997e-06



.step lset=5.43999999999997e-06



.step lset=5.45999999999997e-06



.step lset=5.47999999999997e-06



.step lset=5.49999999999997e-06



.step lset=5.51999999999997e-06



.step lset=5.53999999999997e-06



.step lset=5.55999999999997e-06



.step lset=5.57999999999997e-06



.step lset=5.59999999999997e-06



.step lset=5.61999999999997e-06



.step lset=5.63999999999997e-06



.step lset=5.65999999999997e-06



.step lset=5.67999999999997e-06



.step lset=5.69999999999997e-06



.step lset=5.71999999999997e-06



.step lset=5.73999999999997e-06



.step lset=5.75999999999997e-06



.step lset=5.77999999999996e-06



.step lset=5.79999999999996e-06



.step lset=5.81999999999996e-06



.step lset=5.83999999999996e-06



.step lset=5.85999999999996e-06



.step lset=5.87999999999996e-06



.step lset=5.89999999999996e-06



.step lset=5.91999999999996e-06



.step lset=5.93999999999996e-06



.step lset=5.95999999999996e-06



.step lset=5.97999999999996e-06



.step lset=5.99999999999996e-06



.step lset=6.01999999999996e-06



.step lset=6.03999999999996e-06



.step lset=6.05999999999996e-06



.step lset=6.07999999999996e-06



.step lset=6.09999999999996e-06



.step lset=6.11999999999996e-06



.step lset=6.13999999999996e-06



.step lset=6.15999999999996e-06



.step lset=6.17999999999996e-06



.step lset=6.19999999999996e-06



.step lset=6.21999999999996e-06



.step lset=6.23999999999996e-06



.step lset=6.25999999999996e-06



.step lset=6.27999999999996e-06



.step lset=6.29999999999996e-06



.step lset=6.31999999999996e-06



.step lset=6.33999999999996e-06



.step lset=6.35999999999996e-06



.step lset=6.37999999999996e-06



.step lset=6.39999999999996e-06



.step lset=6.41999999999996e-06



.step lset=6.43999999999996e-06



.step lset=6.45999999999996e-06



.step lset=6.47999999999996e-06



.step lset=6.49999999999996e-06



.step lset=6.51999999999996e-06



.step lset=6.53999999999996e-06



.step lset=6.55999999999996e-06



.step lset=6.57999999999996e-06



.step lset=6.59999999999996e-06



.step lset=6.61999999999996e-06



.step lset=6.63999999999996e-06



.step lset=6.65999999999996e-06



.step lset=6.67999999999996e-06



.step lset=6.69999999999996e-06



.step lset=6.71999999999996e-06



.step lset=6.73999999999996e-06



.step lset=6.75999999999996e-06



.step lset=6.77999999999996e-06



.step lset=6.79999999999996e-06



.step lset=6.81999999999996e-06



.step lset=6.83999999999995e-06



.step lset=6.85999999999995e-06



.step lset=6.87999999999995e-06



.step lset=6.89999999999995e-06



.step lset=6.91999999999995e-06



.step lset=6.93999999999995e-06



.step lset=6.95999999999995e-06



.step lset=6.97999999999995e-06



.step lset=6.99999999999995e-06



.step lset=7.01999999999995e-06



.step lset=7.03999999999995e-06



.step lset=7.05999999999995e-06



.step lset=7.07999999999995e-06



.step lset=7.09999999999995e-06



.step lset=7.11999999999995e-06



.step lset=7.13999999999995e-06



.step lset=7.15999999999995e-06



.step lset=7.17999999999995e-06



.step lset=7.19999999999995e-06



.step lset=7.21999999999995e-06



.step lset=7.23999999999995e-06



.step lset=7.25999999999995e-06



.step lset=7.27999999999995e-06



.step lset=7.29999999999995e-06



.step lset=7.31999999999995e-06



.step lset=7.33999999999995e-06



.step lset=7.35999999999995e-06



.step lset=7.37999999999995e-06



.step lset=7.39999999999995e-06



.step lset=7.41999999999995e-06



.step lset=7.43999999999995e-06



.step lset=7.45999999999995e-06



.step lset=7.47999999999995e-06



.step lset=7.49999999999995e-06



.step lset=7.51999999999995e-06



.step lset=7.53999999999995e-06



.step lset=7.55999999999995e-06



.step lset=7.57999999999995e-06



.step lset=7.59999999999995e-06



.step lset=7.61999999999995e-06



.step lset=7.63999999999995e-06



.step lset=7.65999999999995e-06



.step lset=7.67999999999995e-06



.step lset=7.69999999999995e-06



.step lset=7.71999999999995e-06



.step lset=7.73999999999995e-06



.step lset=7.75999999999995e-06



.step lset=7.77999999999995e-06



.step lset=7.79999999999995e-06



.step lset=7.81999999999995e-06



.step lset=7.83999999999995e-06



.step lset=7.85999999999995e-06



.step lset=7.87999999999994e-06



.step lset=7.89999999999994e-06



.step lset=7.91999999999994e-06



.step lset=7.93999999999994e-06



.step lset=7.95999999999994e-06



.step lset=7.97999999999994e-06



.step lset=7.99999999999994e-06



.step lset=8.01999999999994e-06



.step lset=8.03999999999994e-06



.step lset=8.05999999999994e-06



.step lset=8.07999999999994e-06



.step lset=8.09999999999994e-06



.step lset=8.11999999999994e-06



.step lset=8.13999999999994e-06



.step lset=8.15999999999994e-06



.step lset=8.17999999999994e-06



.step lset=8.19999999999994e-06



.step lset=8.21999999999994e-06



.step lset=8.23999999999994e-06



.step lset=8.25999999999994e-06



.step lset=8.27999999999994e-06



.step lset=8.29999999999994e-06



.step lset=8.31999999999994e-06



.step lset=8.33999999999994e-06



.step lset=8.35999999999994e-06



.step lset=8.37999999999994e-06



.step lset=8.39999999999994e-06



.step lset=8.41999999999994e-06



.step lset=8.43999999999994e-06



.step lset=8.45999999999994e-06



.step lset=8.47999999999994e-06



.step lset=8.49999999999994e-06



.step lset=8.51999999999994e-06



.step lset=8.53999999999994e-06



.step lset=8.55999999999994e-06



.step lset=8.57999999999994e-06



.step lset=8.59999999999994e-06



.step lset=8.61999999999994e-06



.step lset=8.63999999999994e-06



.step lset=8.65999999999994e-06



.step lset=8.67999999999994e-06



.step lset=8.69999999999994e-06



.step lset=8.71999999999994e-06



.step lset=8.73999999999994e-06



.step lset=8.75999999999994e-06



.step lset=8.77999999999994e-06



.step lset=8.79999999999994e-06



.step lset=8.81999999999994e-06



.step lset=8.83999999999994e-06



.step lset=8.85999999999994e-06



.step lset=8.87999999999994e-06



.step lset=8.89999999999994e-06



.step lset=8.91999999999993e-06



.step lset=8.93999999999993e-06



.step lset=8.95999999999993e-06



.step lset=8.97999999999993e-06



.step lset=8.99999999999993e-06



.step lset=9.01999999999993e-06



.step lset=9.03999999999993e-06



.step lset=9.05999999999993e-06



.step lset=9.07999999999993e-06



.step lset=9.09999999999993e-06



.step lset=9.11999999999993e-06



.step lset=9.13999999999993e-06



.step lset=9.15999999999993e-06



.step lset=9.17999999999993e-06



.step lset=9.19999999999993e-06



.step lset=9.21999999999993e-06



.step lset=9.23999999999993e-06



.step lset=9.25999999999993e-06



.step lset=9.27999999999993e-06



.step lset=9.29999999999993e-06



.step lset=9.31999999999993e-06



.step lset=9.33999999999993e-06



.step lset=9.35999999999993e-06



.step lset=9.37999999999993e-06



.step lset=9.39999999999993e-06



.step lset=9.41999999999993e-06



.step lset=9.43999999999993e-06



.step lset=9.45999999999993e-06



.step lset=9.47999999999993e-06



.step lset=9.49999999999993e-06



.step lset=9.51999999999993e-06



.step lset=9.53999999999993e-06



.step lset=9.55999999999993e-06



.step lset=9.57999999999993e-06



.step lset=9.59999999999993e-06



.step lset=9.61999999999993e-06



.step lset=9.63999999999993e-06



.step lset=9.65999999999993e-06



.step lset=9.67999999999993e-06



.step lset=9.69999999999993e-06



.step lset=9.71999999999993e-06



.step lset=9.73999999999993e-06



.step lset=9.75999999999993e-06



.step lset=9.77999999999993e-06



.step lset=9.79999999999993e-06



.step lset=9.81999999999993e-06



.step lset=9.83999999999993e-06



.step lset=9.85999999999993e-06



.step lset=9.87999999999993e-06



.step lset=9.89999999999993e-06



.step lset=9.91999999999993e-06



.step lset=9.93999999999993e-06



.step lset=9.95999999999992e-06



.step lset=9.97999999999992e-06
tnom = 27
temp = 27
method = modified trap
.step lset=9.99999999999992e-06


Measurement: id1
  step	id(m1)	at
     1	2.39846e-05	0.5
     2	2.00203e-05	0.5
     3	1.69988e-05	0.5
     4	1.48384e-05	0.5
     5	1.33485e-05	0.5
     6	1.23536e-05	0.5
     7	1.17184e-05	0.5
     8	1.13445e-05	0.5
     9	1.11616e-05	0.5
    10	1.11194e-05	0.5
    11	1.11815e-05	0.5
    12	1.1321e-05	0.5
    13	1.15181e-05	0.5
    14	1.17577e-05	0.5
    15	1.20282e-05	0.5
    16	1.23206e-05	0.5
    17	1.26282e-05	0.5
    18	1.29455e-05	0.5
    19	1.32684e-05	0.5
    20	1.35934e-05	0.5
    21	1.39181e-05	0.5
    22	1.42403e-05	0.5
    23	1.45587e-05	0.5
    24	1.48719e-05	0.5
    25	1.5179e-05	0.5
    26	1.54795e-05	0.5
    27	1.57726e-05	0.5
    28	1.60583e-05	0.5
    29	1.63361e-05	0.5
    30	1.66061e-05	0.5
    31	1.6868e-05	0.5
    32	1.71221e-05	0.5
    33	1.73683e-05	0.5
    34	1.76067e-05	0.5
    35	1.78375e-05	0.5
    36	1.80609e-05	0.5
    37	1.82769e-05	0.5
    38	1.8486e-05	0.5
    39	1.86881e-05	0.5
    40	1.88837e-05	0.5
    41	1.90728e-05	0.5
    42	1.92556e-05	0.5
    43	1.94325e-05	0.5
    44	1.96036e-05	0.5
    45	1.97692e-05	0.5
    46	1.99294e-05	0.5
    47	2.00844e-05	0.5
    48	2.02345e-05	0.5
    49	2.03798e-05	0.5
    50	2.05206e-05	0.5
    51	2.06569e-05	0.5
    52	2.07891e-05	0.5
    53	2.09172e-05	0.5
    54	2.10413e-05	0.5
    55	2.11618e-05	0.5
    56	2.12787e-05	0.5
    57	2.13921e-05	0.5
    58	2.15022e-05	0.5
    59	2.16091e-05	0.5
    60	2.1713e-05	0.5
    61	2.18139e-05	0.5
    62	2.1912e-05	0.5
    63	2.20074e-05	0.5
    64	2.21002e-05	0.5
    65	2.21904e-05	0.5
    66	2.22783e-05	0.5
    67	2.23638e-05	0.5
    68	2.24471e-05	0.5
    69	2.25282e-05	0.5
    70	2.26073e-05	0.5
    71	2.26843e-05	0.5
    72	2.27594e-05	0.5
    73	2.28327e-05	0.5
    74	2.29042e-05	0.5
    75	2.29739e-05	0.5
    76	2.3042e-05	0.5
    77	2.31084e-05	0.5
    78	2.31733e-05	0.5
    79	2.32367e-05	0.5
    80	2.32986e-05	0.5
    81	2.33591e-05	0.5
    82	2.34183e-05	0.5
    83	2.34761e-05	0.5
    84	2.35327e-05	0.5
    85	2.3588e-05	0.5
    86	2.36422e-05	0.5
    87	2.36952e-05	0.5
    88	2.37471e-05	0.5
    89	2.37978e-05	0.5
    90	2.38476e-05	0.5
    91	2.38963e-05	0.5
    92	2.3944e-05	0.5
    93	2.39908e-05	0.5
    94	2.40366e-05	0.5
    95	2.40815e-05	0.5
    96	2.41256e-05	0.5
    97	2.41688e-05	0.5
    98	2.42112e-05	0.5
    99	2.42528e-05	0.5
   100	2.42935e-05	0.5
   101	2.43336e-05	0.5
   102	2.43729e-05	0.5
   103	2.44114e-05	0.5
   104	2.44493e-05	0.5
   105	2.44865e-05	0.5
   106	2.4523e-05	0.5
   107	2.45589e-05	0.5
   108	2.45942e-05	0.5
   109	2.46288e-05	0.5
   110	2.46629e-05	0.5
   111	2.46963e-05	0.5
   112	2.47292e-05	0.5
   113	2.47616e-05	0.5
   114	2.47934e-05	0.5
   115	2.48247e-05	0.5
   116	2.48555e-05	0.5
   117	2.48858e-05	0.5
   118	2.49156e-05	0.5
   119	2.49449e-05	0.5
   120	2.49737e-05	0.5
   121	2.50021e-05	0.5
   122	2.50301e-05	0.5
   123	2.50576e-05	0.5
   124	2.50847e-05	0.5
   125	2.51114e-05	0.5
   126	2.51377e-05	0.5
   127	2.51636e-05	0.5
   128	2.51891e-05	0.5
   129	2.52143e-05	0.5
   130	2.5239e-05	0.5
   131	2.52635e-05	0.5
   132	2.52875e-05	0.5
   133	2.53112e-05	0.5
   134	2.53346e-05	0.5
   135	2.53577e-05	0.5
   136	2.53804e-05	0.5
   137	2.54028e-05	0.5
   138	2.54249e-05	0.5
   139	2.54467e-05	0.5
   140	2.54682e-05	0.5
   141	2.54894e-05	0.5
   142	2.55104e-05	0.5
   143	2.5531e-05	0.5
   144	2.55514e-05	0.5
   145	2.55715e-05	0.5
   146	2.55914e-05	0.5
   147	2.5611e-05	0.5
   148	2.56303e-05	0.5
   149	2.56494e-05	0.5
   150	2.56683e-05	0.5
   151	2.56869e-05	0.5
   152	2.57053e-05	0.5
   153	2.57234e-05	0.5
   154	2.57413e-05	0.5
   155	2.5759e-05	0.5
   156	2.57765e-05	0.5
   157	2.57938e-05	0.5
   158	2.58109e-05	0.5
   159	2.58278e-05	0.5
   160	2.58444e-05	0.5
   161	2.58609e-05	0.5
   162	2.58772e-05	0.5
   163	2.58933e-05	0.5
   164	2.59092e-05	0.5
   165	2.59249e-05	0.5
   166	2.59405e-05	0.5
   167	2.59558e-05	0.5
   168	2.5971e-05	0.5
   169	2.5986e-05	0.5
   170	2.60009e-05	0.5
   171	2.60156e-05	0.5
   172	2.60301e-05	0.5
   173	2.60445e-05	0.5
   174	2.60587e-05	0.5
   175	2.60728e-05	0.5
   176	2.60867e-05	0.5
   177	2.61004e-05	0.5
   178	2.6114e-05	0.5
   179	2.61275e-05	0.5
   180	2.61408e-05	0.5
   181	2.6154e-05	0.5
   182	2.61671e-05	0.5
   183	2.618e-05	0.5
   184	2.61927e-05	0.5
   185	2.62054e-05	0.5
   186	2.62179e-05	0.5
   187	2.62303e-05	0.5
   188	2.62426e-05	0.5
   189	2.62547e-05	0.5
   190	2.62668e-05	0.5
   191	2.62787e-05	0.5
   192	2.62905e-05	0.5
   193	2.63021e-05	0.5
   194	2.63137e-05	0.5
   195	2.63251e-05	0.5
   196	2.63365e-05	0.5
   197	2.63477e-05	0.5
   198	2.63588e-05	0.5
   199	2.63698e-05	0.5
   200	2.63807e-05	0.5
   201	2.63916e-05	0.5
   202	2.64023e-05	0.5
   203	2.64129e-05	0.5
   204	2.64234e-05	0.5
   205	2.64338e-05	0.5
   206	2.64441e-05	0.5
   207	2.64543e-05	0.5
   208	2.64645e-05	0.5
   209	2.64745e-05	0.5
   210	2.64845e-05	0.5
   211	2.64943e-05	0.5
   212	2.65041e-05	0.5
   213	2.65138e-05	0.5
   214	2.65234e-05	0.5
   215	2.65329e-05	0.5
   216	2.65423e-05	0.5
   217	2.65517e-05	0.5
   218	2.6561e-05	0.5
   219	2.65702e-05	0.5
   220	2.65793e-05	0.5
   221	2.65883e-05	0.5
   222	2.65973e-05	0.5
   223	2.66061e-05	0.5
   224	2.6615e-05	0.5
   225	2.66237e-05	0.5
   226	2.66324e-05	0.5
   227	2.66409e-05	0.5
   228	2.66495e-05	0.5
   229	2.66579e-05	0.5
   230	2.66663e-05	0.5
   231	2.66746e-05	0.5
   232	2.66828e-05	0.5
   233	2.6691e-05	0.5
   234	2.66991e-05	0.5
   235	2.67072e-05	0.5
   236	2.67152e-05	0.5
   237	2.67231e-05	0.5
   238	2.67309e-05	0.5
   239	2.67387e-05	0.5
   240	2.67465e-05	0.5
   241	2.67541e-05	0.5
   242	2.67618e-05	0.5
   243	2.67693e-05	0.5
   244	2.67768e-05	0.5
   245	2.67843e-05	0.5
   246	2.67916e-05	0.5
   247	2.6799e-05	0.5
   248	2.68062e-05	0.5
   249	2.68135e-05	0.5
   250	2.68206e-05	0.5
   251	2.68277e-05	0.5
   252	2.68348e-05	0.5
   253	2.68418e-05	0.5
   254	2.68487e-05	0.5
   255	2.68556e-05	0.5
   256	2.68625e-05	0.5
   257	2.68693e-05	0.5
   258	2.6876e-05	0.5
   259	2.68827e-05	0.5
   260	2.68894e-05	0.5
   261	2.6896e-05	0.5
   262	2.69025e-05	0.5
   263	2.69091e-05	0.5
   264	2.69155e-05	0.5
   265	2.69219e-05	0.5
   266	2.69283e-05	0.5
   267	2.69346e-05	0.5
   268	2.69409e-05	0.5
   269	2.69472e-05	0.5
   270	2.69534e-05	0.5
   271	2.69595e-05	0.5
   272	2.69656e-05	0.5
   273	2.69717e-05	0.5
   274	2.69777e-05	0.5
   275	2.69837e-05	0.5
   276	2.69897e-05	0.5
   277	2.69956e-05	0.5
   278	2.70014e-05	0.5
   279	2.70073e-05	0.5
   280	2.7013e-05	0.5
   281	2.70188e-05	0.5
   282	2.70245e-05	0.5
   283	2.70302e-05	0.5
   284	2.70358e-05	0.5
   285	2.70414e-05	0.5
   286	2.7047e-05	0.5
   287	2.70525e-05	0.5
   288	2.7058e-05	0.5
   289	2.70634e-05	0.5
   290	2.70689e-05	0.5
   291	2.70742e-05	0.5
   292	2.70796e-05	0.5
   293	2.70849e-05	0.5
   294	2.70902e-05	0.5
   295	2.70954e-05	0.5
   296	2.71006e-05	0.5
   297	2.71058e-05	0.5
   298	2.7111e-05	0.5
   299	2.71161e-05	0.5
   300	2.71212e-05	0.5
   301	2.71262e-05	0.5
   302	2.71312e-05	0.5
   303	2.71362e-05	0.5
   304	2.71412e-05	0.5
   305	2.71461e-05	0.5
   306	2.7151e-05	0.5
   307	2.71559e-05	0.5
   308	2.71607e-05	0.5
   309	2.71655e-05	0.5
   310	2.71703e-05	0.5
   311	2.71751e-05	0.5
   312	2.71798e-05	0.5
   313	2.71845e-05	0.5
   314	2.71891e-05	0.5
   315	2.71938e-05	0.5
   316	2.71984e-05	0.5
   317	2.7203e-05	0.5
   318	2.72075e-05	0.5
   319	2.72121e-05	0.5
   320	2.72166e-05	0.5
   321	2.7221e-05	0.5
   322	2.72255e-05	0.5
   323	2.72299e-05	0.5
   324	2.72343e-05	0.5
   325	2.72387e-05	0.5
   326	2.7243e-05	0.5
   327	2.72474e-05	0.5
   328	2.72516e-05	0.5
   329	2.72559e-05	0.5
   330	2.72602e-05	0.5
   331	2.72644e-05	0.5
   332	2.72686e-05	0.5
   333	2.72728e-05	0.5
   334	2.72769e-05	0.5
   335	2.72811e-05	0.5
   336	2.72852e-05	0.5
   337	2.72893e-05	0.5
   338	2.72933e-05	0.5
   339	2.72974e-05	0.5
   340	2.73014e-05	0.5
   341	2.73054e-05	0.5
   342	2.73093e-05	0.5
   343	2.73133e-05	0.5
   344	2.73172e-05	0.5
   345	2.73211e-05	0.5
   346	2.7325e-05	0.5
   347	2.73289e-05	0.5
   348	2.73327e-05	0.5
   349	2.73365e-05	0.5
   350	2.73404e-05	0.5
   351	2.73441e-05	0.5
   352	2.73479e-05	0.5
   353	2.73516e-05	0.5
   354	2.73554e-05	0.5
   355	2.73591e-05	0.5
   356	2.73628e-05	0.5
   357	2.73664e-05	0.5
   358	2.73701e-05	0.5
   359	2.73737e-05	0.5
   360	2.73773e-05	0.5
   361	2.73809e-05	0.5
   362	2.73845e-05	0.5
   363	2.7388e-05	0.5
   364	2.73915e-05	0.5
   365	2.7395e-05	0.5
   366	2.73985e-05	0.5
   367	2.7402e-05	0.5
   368	2.74055e-05	0.5
   369	2.74089e-05	0.5
   370	2.74124e-05	0.5
   371	2.74158e-05	0.5
   372	2.74191e-05	0.5
   373	2.74225e-05	0.5
   374	2.74259e-05	0.5
   375	2.74292e-05	0.5
   376	2.74325e-05	0.5
   377	2.74358e-05	0.5
   378	2.74391e-05	0.5
   379	2.74424e-05	0.5
   380	2.74457e-05	0.5
   381	2.74489e-05	0.5
   382	2.74521e-05	0.5
   383	2.74553e-05	0.5
   384	2.74585e-05	0.5
   385	2.74617e-05	0.5
   386	2.74649e-05	0.5
   387	2.7468e-05	0.5
   388	2.74711e-05	0.5
   389	2.74743e-05	0.5
   390	2.74774e-05	0.5
   391	2.74805e-05	0.5
   392	2.74835e-05	0.5
   393	2.74866e-05	0.5
   394	2.74896e-05	0.5
   395	2.74926e-05	0.5
   396	2.74957e-05	0.5
   397	2.74987e-05	0.5
   398	2.75016e-05	0.5
   399	2.75046e-05	0.5
   400	2.75076e-05	0.5
   401	2.75105e-05	0.5
   402	2.75134e-05	0.5
   403	2.75164e-05	0.5
   404	2.75193e-05	0.5
   405	2.75221e-05	0.5
   406	2.7525e-05	0.5
   407	2.75279e-05	0.5
   408	2.75307e-05	0.5
   409	2.75336e-05	0.5
   410	2.75364e-05	0.5
   411	2.75392e-05	0.5
   412	2.7542e-05	0.5
   413	2.75448e-05	0.5
   414	2.75475e-05	0.5
   415	2.75503e-05	0.5
   416	2.7553e-05	0.5
   417	2.75558e-05	0.5
   418	2.75585e-05	0.5
   419	2.75612e-05	0.5
   420	2.75639e-05	0.5
   421	2.75666e-05	0.5
   422	2.75692e-05	0.5
   423	2.75719e-05	0.5
   424	2.75745e-05	0.5
   425	2.75772e-05	0.5
   426	2.75798e-05	0.5
   427	2.75824e-05	0.5
   428	2.7585e-05	0.5
   429	2.75876e-05	0.5
   430	2.75902e-05	0.5
   431	2.75927e-05	0.5
   432	2.75953e-05	0.5
   433	2.75978e-05	0.5
   434	2.76004e-05	0.5
   435	2.76029e-05	0.5
   436	2.76054e-05	0.5
   437	2.76079e-05	0.5
   438	2.76104e-05	0.5
   439	2.76129e-05	0.5
   440	2.76153e-05	0.5
   441	2.76178e-05	0.5
   442	2.76202e-05	0.5
   443	2.76227e-05	0.5
   444	2.76251e-05	0.5
   445	2.76275e-05	0.5
   446	2.76299e-05	0.5
   447	2.76323e-05	0.5
   448	2.76347e-05	0.5
   449	2.76371e-05	0.5
   450	2.76394e-05	0.5
   451	2.76418e-05	0.5
   452	2.76441e-05	0.5
   453	2.76465e-05	0.5
   454	2.76488e-05	0.5
   455	2.76511e-05	0.5
   456	2.76534e-05	0.5
   457	2.76557e-05	0.5
   458	2.7658e-05	0.5
   459	2.76603e-05	0.5
   460	2.76625e-05	0.5
   461	2.76648e-05	0.5
   462	2.7667e-05	0.5
   463	2.76693e-05	0.5
   464	2.76715e-05	0.5
   465	2.76737e-05	0.5
   466	2.76759e-05	0.5
   467	2.76781e-05	0.5
   468	2.76803e-05	0.5
   469	2.76825e-05	0.5
   470	2.76847e-05	0.5
   471	2.76869e-05	0.5
   472	2.7689e-05	0.5
   473	2.76912e-05	0.5
   474	2.76933e-05	0.5
   475	2.76954e-05	0.5
   476	2.76976e-05	0.5
   477	2.76997e-05	0.5
   478	2.77018e-05	0.5
   479	2.77039e-05	0.5
   480	2.7706e-05	0.5
   481	2.77081e-05	0.5
   482	2.77101e-05	0.5
   483	2.77122e-05	0.5
   484	2.77143e-05	0.5
   485	2.77163e-05	0.5
   486	2.77183e-05	0.5
   487	2.77204e-05	0.5
   488	2.77224e-05	0.5
   489	2.77244e-05	0.5
   490	2.77264e-05	0.5
   491	2.77284e-05	0.5
   492	2.77304e-05	0.5
   493	2.77324e-05	0.5
   494	2.77344e-05	0.5
   495	2.77364e-05	0.5
   496	2.77383e-05	0.5

Measurement: id2
  step	id(m1)	at
     1	4.031e-05	1.3
     2	3.10069e-05	1.3
     3	2.47712e-05	1.3
     4	2.05915e-05	1.3
     5	1.77896e-05	1.3
     6	1.59166e-05	1.3
     7	1.46779e-05	1.3
     8	1.38797e-05	1.3
     9	1.33929e-05	1.3
    10	1.31296e-05	1.3
    11	1.30291e-05	1.3
    12	1.3048e-05	1.3
    13	1.31549e-05	1.3
    14	1.33267e-05	1.3
    15	1.35461e-05	1.3
    16	1.37999e-05	1.3
    17	1.40781e-05	1.3
    18	1.43729e-05	1.3
    19	1.46783e-05	1.3
    20	1.49897e-05	1.3
    21	1.53035e-05	1.3
    22	1.56169e-05	1.3
    23	1.59277e-05	1.3
    24	1.62344e-05	1.3
    25	1.65357e-05	1.3
    26	1.68306e-05	1.3
    27	1.71186e-05	1.3
    28	1.7399e-05	1.3
    29	1.76717e-05	1.3
    30	1.79363e-05	1.3
    31	1.81929e-05	1.3
    32	1.84414e-05	1.3
    33	1.86818e-05	1.3
    34	1.89143e-05	1.3
    35	1.9139e-05	1.3
    36	1.9356e-05	1.3
    37	1.95657e-05	1.3
    38	1.9768e-05	1.3
    39	1.99634e-05	1.3
    40	2.01519e-05	1.3
    41	2.03339e-05	1.3
    42	2.05095e-05	1.3
    43	2.06791e-05	1.3
    44	2.08427e-05	1.3
    45	2.10007e-05	1.3
    46	2.11533e-05	1.3
    47	2.13006e-05	1.3
    48	2.1443e-05	1.3
    49	2.15805e-05	1.3
    50	2.17134e-05	1.3
    51	2.18418e-05	1.3
    52	2.19661e-05	1.3
    53	2.20862e-05	1.3
    54	2.22025e-05	1.3
    55	2.2315e-05	1.3
    56	2.24239e-05	1.3
    57	2.25294e-05	1.3
    58	2.26315e-05	1.3
    59	2.27305e-05	1.3
    60	2.28265e-05	1.3
    61	2.29196e-05	1.3
    62	2.30098e-05	1.3
    63	2.30974e-05	1.3
    64	2.31824e-05	1.3
    65	2.32649e-05	1.3
    66	2.33451e-05	1.3
    67	2.3423e-05	1.3
    68	2.34986e-05	1.3
    69	2.35722e-05	1.3
    70	2.36437e-05	1.3
    71	2.37133e-05	1.3
    72	2.3781e-05	1.3
    73	2.38469e-05	1.3
    74	2.3911e-05	1.3
    75	2.39735e-05	1.3
    76	2.40344e-05	1.3
    77	2.40937e-05	1.3
    78	2.41515e-05	1.3
    79	2.42078e-05	1.3
    80	2.42628e-05	1.3
    81	2.43164e-05	1.3
    82	2.43687e-05	1.3
    83	2.44197e-05	1.3
    84	2.44696e-05	1.3
    85	2.45182e-05	1.3
    86	2.45658e-05	1.3
    87	2.46122e-05	1.3
    88	2.46576e-05	1.3
    89	2.47019e-05	1.3
    90	2.47453e-05	1.3
    91	2.47877e-05	1.3
    92	2.48292e-05	1.3
    93	2.48697e-05	1.3
    94	2.49094e-05	1.3
    95	2.49483e-05	1.3
    96	2.49863e-05	1.3
    97	2.50236e-05	1.3
    98	2.50601e-05	1.3
    99	2.50958e-05	1.3
   100	2.51308e-05	1.3
   101	2.51651e-05	1.3
   102	2.51987e-05	1.3
   103	2.52317e-05	1.3
   104	2.5264e-05	1.3
   105	2.52957e-05	1.3
   106	2.53268e-05	1.3
   107	2.53573e-05	1.3
   108	2.53872e-05	1.3
   109	2.54166e-05	1.3
   110	2.54454e-05	1.3
   111	2.54737e-05	1.3
   112	2.55015e-05	1.3
   113	2.55288e-05	1.3
   114	2.55556e-05	1.3
   115	2.5582e-05	1.3
   116	2.56079e-05	1.3
   117	2.56333e-05	1.3
   118	2.56583e-05	1.3
   119	2.56828e-05	1.3
   120	2.5707e-05	1.3
   121	2.57307e-05	1.3
   122	2.57541e-05	1.3
   123	2.57771e-05	1.3
   124	2.57997e-05	1.3
   125	2.58219e-05	1.3
   126	2.58438e-05	1.3
   127	2.58653e-05	1.3
   128	2.58865e-05	1.3
   129	2.59074e-05	1.3
   130	2.59279e-05	1.3
   131	2.59481e-05	1.3
   132	2.59681e-05	1.3
   133	2.59877e-05	1.3
   134	2.6007e-05	1.3
   135	2.6026e-05	1.3
   136	2.60448e-05	1.3
   137	2.60633e-05	1.3
   138	2.60815e-05	1.3
   139	2.60994e-05	1.3
   140	2.61171e-05	1.3
   141	2.61346e-05	1.3
   142	2.61518e-05	1.3
   143	2.61687e-05	1.3
   144	2.61855e-05	1.3
   145	2.6202e-05	1.3
   146	2.62182e-05	1.3
   147	2.62343e-05	1.3
   148	2.62501e-05	1.3
   149	2.62658e-05	1.3
   150	2.62812e-05	1.3
   151	2.62964e-05	1.3
   152	2.63114e-05	1.3
   153	2.63263e-05	1.3
   154	2.63409e-05	1.3
   155	2.63554e-05	1.3
   156	2.63696e-05	1.3
   157	2.63837e-05	1.3
   158	2.63976e-05	1.3
   159	2.64114e-05	1.3
   160	2.6425e-05	1.3
   161	2.64384e-05	1.3
   162	2.64516e-05	1.3
   163	2.64647e-05	1.3
   164	2.64777e-05	1.3
   165	2.64904e-05	1.3
   166	2.65031e-05	1.3
   167	2.65156e-05	1.3
   168	2.65279e-05	1.3
   169	2.65401e-05	1.3
   170	2.65522e-05	1.3
   171	2.65641e-05	1.3
   172	2.65759e-05	1.3
   173	2.65876e-05	1.3
   174	2.65991e-05	1.3
   175	2.66105e-05	1.3
   176	2.66218e-05	1.3
   177	2.66329e-05	1.3
   178	2.6644e-05	1.3
   179	2.66549e-05	1.3
   180	2.66657e-05	1.3
   181	2.66764e-05	1.3
   182	2.66869e-05	1.3
   183	2.66974e-05	1.3
   184	2.67078e-05	1.3
   185	2.6718e-05	1.3
   186	2.67282e-05	1.3
   187	2.67382e-05	1.3
   188	2.67481e-05	1.3
   189	2.6758e-05	1.3
   190	2.67677e-05	1.3
   191	2.67774e-05	1.3
   192	2.67869e-05	1.3
   193	2.67964e-05	1.3
   194	2.68057e-05	1.3
   195	2.6815e-05	1.3
   196	2.68242e-05	1.3
   197	2.68333e-05	1.3
   198	2.68423e-05	1.3
   199	2.68512e-05	1.3
   200	2.68601e-05	1.3
   201	2.68688e-05	1.3
   202	2.68775e-05	1.3
   203	2.68861e-05	1.3
   204	2.68946e-05	1.3
   205	2.6903e-05	1.3
   206	2.69114e-05	1.3
   207	2.69197e-05	1.3
   208	2.69279e-05	1.3
   209	2.6936e-05	1.3
   210	2.69441e-05	1.3
   211	2.69521e-05	1.3
   212	2.696e-05	1.3
   213	2.69679e-05	1.3
   214	2.69757e-05	1.3
   215	2.69834e-05	1.3
   216	2.6991e-05	1.3
   217	2.69986e-05	1.3
   218	2.70062e-05	1.3
   219	2.70136e-05	1.3
   220	2.7021e-05	1.3
   221	2.70283e-05	1.3
   222	2.70356e-05	1.3
   223	2.70428e-05	1.3
   224	2.705e-05	1.3
   225	2.70571e-05	1.3
   226	2.70641e-05	1.3
   227	2.70711e-05	1.3
   228	2.7078e-05	1.3
   229	2.70849e-05	1.3
   230	2.70917e-05	1.3
   231	2.70985e-05	1.3
   232	2.71052e-05	1.3
   233	2.71118e-05	1.3
   234	2.71184e-05	1.3
   235	2.7125e-05	1.3
   236	2.71315e-05	1.3
   237	2.71379e-05	1.3
   238	2.71443e-05	1.3
   239	2.71507e-05	1.3
   240	2.7157e-05	1.3
   241	2.71632e-05	1.3
   242	2.71695e-05	1.3
   243	2.71756e-05	1.3
   244	2.71817e-05	1.3
   245	2.71878e-05	1.3
   246	2.71938e-05	1.3
   247	2.71998e-05	1.3
   248	2.72057e-05	1.3
   249	2.72116e-05	1.3
   250	2.72175e-05	1.3
   251	2.72233e-05	1.3
   252	2.72291e-05	1.3
   253	2.72348e-05	1.3
   254	2.72405e-05	1.3
   255	2.72461e-05	1.3
   256	2.72517e-05	1.3
   257	2.72573e-05	1.3
   258	2.72628e-05	1.3
   259	2.72683e-05	1.3
   260	2.72737e-05	1.3
   261	2.72791e-05	1.3
   262	2.72845e-05	1.3
   263	2.72899e-05	1.3
   264	2.72952e-05	1.3
   265	2.73004e-05	1.3
   266	2.73056e-05	1.3
   267	2.73108e-05	1.3
   268	2.7316e-05	1.3
   269	2.73211e-05	1.3
   270	2.73262e-05	1.3
   271	2.73313e-05	1.3
   272	2.73363e-05	1.3
   273	2.73413e-05	1.3
   274	2.73462e-05	1.3
   275	2.73511e-05	1.3
   276	2.7356e-05	1.3
   277	2.73609e-05	1.3
   278	2.73657e-05	1.3
   279	2.73705e-05	1.3
   280	2.73753e-05	1.3
   281	2.738e-05	1.3
   282	2.73847e-05	1.3
   283	2.73894e-05	1.3
   284	2.7394e-05	1.3
   285	2.73987e-05	1.3
   286	2.74032e-05	1.3
   287	2.74078e-05	1.3
   288	2.74123e-05	1.3
   289	2.74168e-05	1.3
   290	2.74213e-05	1.3
   291	2.74258e-05	1.3
   292	2.74302e-05	1.3
   293	2.74346e-05	1.3
   294	2.74389e-05	1.3
   295	2.74433e-05	1.3
   296	2.74476e-05	1.3
   297	2.74519e-05	1.3
   298	2.74561e-05	1.3
   299	2.74604e-05	1.3
   300	2.74646e-05	1.3
   301	2.74687e-05	1.3
   302	2.74729e-05	1.3
   303	2.7477e-05	1.3
   304	2.74811e-05	1.3
   305	2.74852e-05	1.3
   306	2.74893e-05	1.3
   307	2.74933e-05	1.3
   308	2.74973e-05	1.3
   309	2.75013e-05	1.3
   310	2.75053e-05	1.3
   311	2.75092e-05	1.3
   312	2.75132e-05	1.3
   313	2.75171e-05	1.3
   314	2.75209e-05	1.3
   315	2.75248e-05	1.3
   316	2.75286e-05	1.3
   317	2.75324e-05	1.3
   318	2.75362e-05	1.3
   319	2.754e-05	1.3
   320	2.75438e-05	1.3
   321	2.75475e-05	1.3
   322	2.75512e-05	1.3
   323	2.75549e-05	1.3
   324	2.75585e-05	1.3
   325	2.75622e-05	1.3
   326	2.75658e-05	1.3
   327	2.75694e-05	1.3
   328	2.7573e-05	1.3
   329	2.75766e-05	1.3
   330	2.75801e-05	1.3
   331	2.75836e-05	1.3
   332	2.75871e-05	1.3
   333	2.75906e-05	1.3
   334	2.75941e-05	1.3
   335	2.75975e-05	1.3
   336	2.7601e-05	1.3
   337	2.76044e-05	1.3
   338	2.76078e-05	1.3
   339	2.76112e-05	1.3
   340	2.76145e-05	1.3
   341	2.76179e-05	1.3
   342	2.76212e-05	1.3
   343	2.76245e-05	1.3
   344	2.76278e-05	1.3
   345	2.76311e-05	1.3
   346	2.76343e-05	1.3
   347	2.76376e-05	1.3
   348	2.76408e-05	1.3
   349	2.7644e-05	1.3
   350	2.76472e-05	1.3
   351	2.76503e-05	1.3
   352	2.76535e-05	1.3
   353	2.76566e-05	1.3
   354	2.76598e-05	1.3
   355	2.76629e-05	1.3
   356	2.7666e-05	1.3
   357	2.7669e-05	1.3
   358	2.76721e-05	1.3
   359	2.76752e-05	1.3
   360	2.76782e-05	1.3
   361	2.76812e-05	1.3
   362	2.76842e-05	1.3
   363	2.76872e-05	1.3
   364	2.76902e-05	1.3
   365	2.76931e-05	1.3
   366	2.76961e-05	1.3
   367	2.7699e-05	1.3
   368	2.77019e-05	1.3
   369	2.77048e-05	1.3
   370	2.77077e-05	1.3
   371	2.77106e-05	1.3
   372	2.77134e-05	1.3
   373	2.77163e-05	1.3
   374	2.77191e-05	1.3
   375	2.77219e-05	1.3
   376	2.77247e-05	1.3
   377	2.77275e-05	1.3
   378	2.77303e-05	1.3
   379	2.7733e-05	1.3
   380	2.77358e-05	1.3
   381	2.77385e-05	1.3
   382	2.77412e-05	1.3
   383	2.77439e-05	1.3
   384	2.77466e-05	1.3
   385	2.77493e-05	1.3
   386	2.7752e-05	1.3
   387	2.77546e-05	1.3
   388	2.77573e-05	1.3
   389	2.77599e-05	1.3
   390	2.77625e-05	1.3
   391	2.77652e-05	1.3
   392	2.77678e-05	1.3
   393	2.77703e-05	1.3
   394	2.77729e-05	1.3
   395	2.77755e-05	1.3
   396	2.7778e-05	1.3
   397	2.77806e-05	1.3
   398	2.77831e-05	1.3
   399	2.77856e-05	1.3
   400	2.77881e-05	1.3
   401	2.77906e-05	1.3
   402	2.77931e-05	1.3
   403	2.77955e-05	1.3
   404	2.7798e-05	1.3
   405	2.78005e-05	1.3
   406	2.78029e-05	1.3
   407	2.78053e-05	1.3
   408	2.78077e-05	1.3
   409	2.78101e-05	1.3
   410	2.78125e-05	1.3
   411	2.78149e-05	1.3
   412	2.78173e-05	1.3
   413	2.78196e-05	1.3
   414	2.7822e-05	1.3
   415	2.78243e-05	1.3
   416	2.78267e-05	1.3
   417	2.7829e-05	1.3
   418	2.78313e-05	1.3
   419	2.78336e-05	1.3
   420	2.78359e-05	1.3
   421	2.78382e-05	1.3
   422	2.78404e-05	1.3
   423	2.78427e-05	1.3
   424	2.78449e-05	1.3
   425	2.78472e-05	1.3
   426	2.78494e-05	1.3
   427	2.78516e-05	1.3
   428	2.78538e-05	1.3
   429	2.7856e-05	1.3
   430	2.78582e-05	1.3
   431	2.78604e-05	1.3
   432	2.78626e-05	1.3
   433	2.78648e-05	1.3
   434	2.78669e-05	1.3
   435	2.78691e-05	1.3
   436	2.78712e-05	1.3
   437	2.78733e-05	1.3
   438	2.78754e-05	1.3
   439	2.78776e-05	1.3
   440	2.78797e-05	1.3
   441	2.78818e-05	1.3
   442	2.78838e-05	1.3
   443	2.78859e-05	1.3
   444	2.7888e-05	1.3
   445	2.789e-05	1.3
   446	2.78921e-05	1.3
   447	2.78941e-05	1.3
   448	2.78962e-05	1.3
   449	2.78982e-05	1.3
   450	2.79002e-05	1.3
   451	2.79022e-05	1.3
   452	2.79042e-05	1.3
   453	2.79062e-05	1.3
   454	2.79082e-05	1.3
   455	2.79102e-05	1.3
   456	2.79121e-05	1.3
   457	2.79141e-05	1.3
   458	2.7916e-05	1.3
   459	2.7918e-05	1.3
   460	2.79199e-05	1.3
   461	2.79218e-05	1.3
   462	2.79238e-05	1.3
   463	2.79257e-05	1.3
   464	2.79276e-05	1.3
   465	2.79295e-05	1.3
   466	2.79314e-05	1.3
   467	2.79333e-05	1.3
   468	2.79351e-05	1.3
   469	2.7937e-05	1.3
   470	2.79389e-05	1.3
   471	2.79407e-05	1.3
   472	2.79425e-05	1.3
   473	2.79444e-05	1.3
   474	2.79462e-05	1.3
   475	2.7948e-05	1.3
   476	2.79499e-05	1.3
   477	2.79517e-05	1.3
   478	2.79535e-05	1.3
   479	2.79553e-05	1.3
   480	2.7957e-05	1.3
   481	2.79588e-05	1.3
   482	2.79606e-05	1.3
   483	2.79624e-05	1.3
   484	2.79641e-05	1.3
   485	2.79659e-05	1.3
   486	2.79676e-05	1.3
   487	2.79694e-05	1.3
   488	2.79711e-05	1.3
   489	2.79728e-05	1.3
   490	2.79746e-05	1.3
   491	2.79763e-05	1.3
   492	2.7978e-05	1.3
   493	2.79797e-05	1.3
   494	2.79814e-05	1.3
   495	2.79831e-05	1.3
   496	2.79847e-05	1.3

Measurement: id0
  step	id(m1)	at
     1	3.1864e-05	0.9
     2	2.53619e-05	0.9
     3	2.07958e-05	0.9
     4	1.76602e-05	0.9
     5	1.55351e-05	0.9
     6	1.41146e-05	0.9
     7	1.31868e-05	0.9
     8	1.26072e-05	0.9
     9	1.2277e-05	0.9
    10	1.21277e-05	0.9
    11	1.21111e-05	0.9
    12	1.21923e-05	0.9
    13	1.23459e-05	0.9
    14	1.25529e-05	0.9
    15	1.27988e-05	0.9
    16	1.30728e-05	0.9
    17	1.33664e-05	0.9
    18	1.3673e-05	0.9
    19	1.39876e-05	0.9
    20	1.43062e-05	0.9
    21	1.46257e-05	0.9
    22	1.49438e-05	0.9
    23	1.52587e-05	0.9
    24	1.55688e-05	0.9
    25	1.58732e-05	0.9
    26	1.61711e-05	0.9
    27	1.64618e-05	0.9
    28	1.67449e-05	0.9
    29	1.70203e-05	0.9
    30	1.72877e-05	0.9
    31	1.7547e-05	0.9
    32	1.77983e-05	0.9
    33	1.80417e-05	0.9
    34	1.82772e-05	0.9
    35	1.8505e-05	0.9
    36	1.87252e-05	0.9
    37	1.89381e-05	0.9
    38	1.91438e-05	0.9
    39	1.93425e-05	0.9
    40	1.95346e-05	0.9
    41	1.97201e-05	0.9
    42	1.98993e-05	0.9
    43	2.00725e-05	0.9
    44	2.02399e-05	0.9
    45	2.04016e-05	0.9
    46	2.0558e-05	0.9
    47	2.07091e-05	0.9
    48	2.08553e-05	0.9
    49	2.09967e-05	0.9
    50	2.11335e-05	0.9
    51	2.12659e-05	0.9
    52	2.1394e-05	0.9
    53	2.15181e-05	0.9
    54	2.16382e-05	0.9
    55	2.17547e-05	0.9
    56	2.18675e-05	0.9
    57	2.19769e-05	0.9
    58	2.2083e-05	0.9
    59	2.21859e-05	0.9
    60	2.22858e-05	0.9
    61	2.23827e-05	0.9
    62	2.24768e-05	0.9
    63	2.25683e-05	0.9
    64	2.26571e-05	0.9
    65	2.27434e-05	0.9
    66	2.28274e-05	0.9
    67	2.2909e-05	0.9
    68	2.29884e-05	0.9
    69	2.30657e-05	0.9
    70	2.3141e-05	0.9
    71	2.32142e-05	0.9
    72	2.32856e-05	0.9
    73	2.33551e-05	0.9
    74	2.34228e-05	0.9
    75	2.34889e-05	0.9
    76	2.35533e-05	0.9
    77	2.36161e-05	0.9
    78	2.36774e-05	0.9
    79	2.37372e-05	0.9
    80	2.37956e-05	0.9
    81	2.38526e-05	0.9
    82	2.39083e-05	0.9
    83	2.39627e-05	0.9
    84	2.40158e-05	0.9
    85	2.40678e-05	0.9
    86	2.41186e-05	0.9
    87	2.41682e-05	0.9
    88	2.42168e-05	0.9
    89	2.42643e-05	0.9
    90	2.43108e-05	0.9
    91	2.43563e-05	0.9
    92	2.44009e-05	0.9
    93	2.44445e-05	0.9
    94	2.44872e-05	0.9
    95	2.45291e-05	0.9
    96	2.45701e-05	0.9
    97	2.46103e-05	0.9
    98	2.46497e-05	0.9
    99	2.46883e-05	0.9
   100	2.47261e-05	0.9
   101	2.47632e-05	0.9
   102	2.47997e-05	0.9
   103	2.48354e-05	0.9
   104	2.48704e-05	0.9
   105	2.49048e-05	0.9
   106	2.49386e-05	0.9
   107	2.49718e-05	0.9
   108	2.50043e-05	0.9
   109	2.50363e-05	0.9
   110	2.50677e-05	0.9
   111	2.50985e-05	0.9
   112	2.51288e-05	0.9
   113	2.51586e-05	0.9
   114	2.51879e-05	0.9
   115	2.52167e-05	0.9
   116	2.5245e-05	0.9
   117	2.52728e-05	0.9
   118	2.53001e-05	0.9
   119	2.5327e-05	0.9
   120	2.53535e-05	0.9
   121	2.53795e-05	0.9
   122	2.54052e-05	0.9
   123	2.54304e-05	0.9
   124	2.54552e-05	0.9
   125	2.54796e-05	0.9
   126	2.55037e-05	0.9
   127	2.55274e-05	0.9
   128	2.55507e-05	0.9
   129	2.55737e-05	0.9
   130	2.55963e-05	0.9
   131	2.56186e-05	0.9
   132	2.56405e-05	0.9
   133	2.56622e-05	0.9
   134	2.56835e-05	0.9
   135	2.57045e-05	0.9
   136	2.57252e-05	0.9
   137	2.57456e-05	0.9
   138	2.57657e-05	0.9
   139	2.57856e-05	0.9
   140	2.58052e-05	0.9
   141	2.58245e-05	0.9
   142	2.58435e-05	0.9
   143	2.58623e-05	0.9
   144	2.58808e-05	0.9
   145	2.58991e-05	0.9
   146	2.59171e-05	0.9
   147	2.59349e-05	0.9
   148	2.59525e-05	0.9
   149	2.59698e-05	0.9
   150	2.59869e-05	0.9
   151	2.60038e-05	0.9
   152	2.60205e-05	0.9
   153	2.60369e-05	0.9
   154	2.60532e-05	0.9
   155	2.60693e-05	0.9
   156	2.60851e-05	0.9
   157	2.61008e-05	0.9
   158	2.61163e-05	0.9
   159	2.61315e-05	0.9
   160	2.61466e-05	0.9
   161	2.61616e-05	0.9
   162	2.61763e-05	0.9
   163	2.61909e-05	0.9
   164	2.62053e-05	0.9
   165	2.62195e-05	0.9
   166	2.62336e-05	0.9
   167	2.62475e-05	0.9
   168	2.62612e-05	0.9
   169	2.62748e-05	0.9
   170	2.62882e-05	0.9
   171	2.63015e-05	0.9
   172	2.63147e-05	0.9
   173	2.63277e-05	0.9
   174	2.63405e-05	0.9
   175	2.63532e-05	0.9
   176	2.63658e-05	0.9
   177	2.63782e-05	0.9
   178	2.63905e-05	0.9
   179	2.64027e-05	0.9
   180	2.64147e-05	0.9
   181	2.64267e-05	0.9
   182	2.64385e-05	0.9
   183	2.64501e-05	0.9
   184	2.64617e-05	0.9
   185	2.64731e-05	0.9
   186	2.64844e-05	0.9
   187	2.64956e-05	0.9
   188	2.65067e-05	0.9
   189	2.65177e-05	0.9
   190	2.65285e-05	0.9
   191	2.65393e-05	0.9
   192	2.65499e-05	0.9
   193	2.65605e-05	0.9
   194	2.65709e-05	0.9
   195	2.65813e-05	0.9
   196	2.65915e-05	0.9
   197	2.66017e-05	0.9
   198	2.66117e-05	0.9
   199	2.66217e-05	0.9
   200	2.66315e-05	0.9
   201	2.66413e-05	0.9
   202	2.6651e-05	0.9
   203	2.66605e-05	0.9
   204	2.667e-05	0.9
   205	2.66795e-05	0.9
   206	2.66888e-05	0.9
   207	2.6698e-05	0.9
   208	2.67072e-05	0.9
   209	2.67162e-05	0.9
   210	2.67252e-05	0.9
   211	2.67341e-05	0.9
   212	2.6743e-05	0.9
   213	2.67517e-05	0.9
   214	2.67604e-05	0.9
   215	2.6769e-05	0.9
   216	2.67776e-05	0.9
   217	2.6786e-05	0.9
   218	2.67944e-05	0.9
   219	2.68027e-05	0.9
   220	2.68109e-05	0.9
   221	2.68191e-05	0.9
   222	2.68272e-05	0.9
   223	2.68352e-05	0.9
   224	2.68432e-05	0.9
   225	2.68511e-05	0.9
   226	2.6859e-05	0.9
   227	2.68667e-05	0.9
   228	2.68744e-05	0.9
   229	2.68821e-05	0.9
   230	2.68897e-05	0.9
   231	2.68972e-05	0.9
   232	2.69047e-05	0.9
   233	2.69121e-05	0.9
   234	2.69194e-05	0.9
   235	2.69267e-05	0.9
   236	2.69339e-05	0.9
   237	2.69411e-05	0.9
   238	2.69482e-05	0.9
   239	2.69553e-05	0.9
   240	2.69623e-05	0.9
   241	2.69692e-05	0.9
   242	2.69761e-05	0.9
   243	2.6983e-05	0.9
   244	2.69898e-05	0.9
   245	2.69965e-05	0.9
   246	2.70032e-05	0.9
   247	2.70098e-05	0.9
   248	2.70164e-05	0.9
   249	2.7023e-05	0.9
   250	2.70295e-05	0.9
   251	2.70359e-05	0.9
   252	2.70423e-05	0.9
   253	2.70487e-05	0.9
   254	2.7055e-05	0.9
   255	2.70612e-05	0.9
   256	2.70674e-05	0.9
   257	2.70736e-05	0.9
   258	2.70797e-05	0.9
   259	2.70858e-05	0.9
   260	2.70919e-05	0.9
   261	2.70979e-05	0.9
   262	2.71038e-05	0.9
   263	2.71097e-05	0.9
   264	2.71156e-05	0.9
   265	2.71214e-05	0.9
   266	2.71272e-05	0.9
   267	2.7133e-05	0.9
   268	2.71387e-05	0.9
   269	2.71444e-05	0.9
   270	2.715e-05	0.9
   271	2.71556e-05	0.9
   272	2.71611e-05	0.9
   273	2.71667e-05	0.9
   274	2.71721e-05	0.9
   275	2.71776e-05	0.9
   276	2.7183e-05	0.9
   277	2.71884e-05	0.9
   278	2.71937e-05	0.9
   279	2.7199e-05	0.9
   280	2.72043e-05	0.9
   281	2.72095e-05	0.9
   282	2.72147e-05	0.9
   283	2.72199e-05	0.9
   284	2.7225e-05	0.9
   285	2.72301e-05	0.9
   286	2.72352e-05	0.9
   287	2.72402e-05	0.9
   288	2.72452e-05	0.9
   289	2.72502e-05	0.9
   290	2.72551e-05	0.9
   291	2.726e-05	0.9
   292	2.72649e-05	0.9
   293	2.72697e-05	0.9
   294	2.72745e-05	0.9
   295	2.72793e-05	0.9
   296	2.72841e-05	0.9
   297	2.72888e-05	0.9
   298	2.72935e-05	0.9
   299	2.72982e-05	0.9
   300	2.73028e-05	0.9
   301	2.73074e-05	0.9
   302	2.7312e-05	0.9
   303	2.73166e-05	0.9
   304	2.73211e-05	0.9
   305	2.73256e-05	0.9
   306	2.73301e-05	0.9
   307	2.73345e-05	0.9
   308	2.73389e-05	0.9
   309	2.73433e-05	0.9
   310	2.73477e-05	0.9
   311	2.7352e-05	0.9
   312	2.73563e-05	0.9
   313	2.73606e-05	0.9
   314	2.73649e-05	0.9
   315	2.73691e-05	0.9
   316	2.73733e-05	0.9
   317	2.73775e-05	0.9
   318	2.73817e-05	0.9
   319	2.73858e-05	0.9
   320	2.739e-05	0.9
   321	2.7394e-05	0.9
   322	2.73981e-05	0.9
   323	2.74022e-05	0.9
   324	2.74062e-05	0.9
   325	2.74102e-05	0.9
   326	2.74142e-05	0.9
   327	2.74181e-05	0.9
   328	2.74221e-05	0.9
   329	2.7426e-05	0.9
   330	2.74299e-05	0.9
   331	2.74337e-05	0.9
   332	2.74376e-05	0.9
   333	2.74414e-05	0.9
   334	2.74452e-05	0.9
   335	2.7449e-05	0.9
   336	2.74528e-05	0.9
   337	2.74565e-05	0.9
   338	2.74602e-05	0.9
   339	2.74639e-05	0.9
   340	2.74676e-05	0.9
   341	2.74713e-05	0.9
   342	2.74749e-05	0.9
   343	2.74785e-05	0.9
   344	2.74822e-05	0.9
   345	2.74857e-05	0.9
   346	2.74893e-05	0.9
   347	2.74928e-05	0.9
   348	2.74964e-05	0.9
   349	2.74999e-05	0.9
   350	2.75034e-05	0.9
   351	2.75069e-05	0.9
   352	2.75103e-05	0.9
   353	2.75137e-05	0.9
   354	2.75172e-05	0.9
   355	2.75206e-05	0.9
   356	2.75239e-05	0.9
   357	2.75273e-05	0.9
   358	2.75307e-05	0.9
   359	2.7534e-05	0.9
   360	2.75373e-05	0.9
   361	2.75406e-05	0.9
   362	2.75439e-05	0.9
   363	2.75471e-05	0.9
   364	2.75504e-05	0.9
   365	2.75536e-05	0.9
   366	2.75568e-05	0.9
   367	2.756e-05	0.9
   368	2.75632e-05	0.9
   369	2.75664e-05	0.9
   370	2.75695e-05	0.9
   371	2.75727e-05	0.9
   372	2.75758e-05	0.9
   373	2.75789e-05	0.9
   374	2.7582e-05	0.9
   375	2.7585e-05	0.9
   376	2.75881e-05	0.9
   377	2.75911e-05	0.9
   378	2.75942e-05	0.9
   379	2.75972e-05	0.9
   380	2.76002e-05	0.9
   381	2.76032e-05	0.9
   382	2.76061e-05	0.9
   383	2.76091e-05	0.9
   384	2.7612e-05	0.9
   385	2.7615e-05	0.9
   386	2.76179e-05	0.9
   387	2.76208e-05	0.9
   388	2.76236e-05	0.9
   389	2.76265e-05	0.9
   390	2.76294e-05	0.9
   391	2.76322e-05	0.9
   392	2.7635e-05	0.9
   393	2.76379e-05	0.9
   394	2.76407e-05	0.9
   395	2.76435e-05	0.9
   396	2.76462e-05	0.9
   397	2.7649e-05	0.9
   398	2.76517e-05	0.9
   399	2.76545e-05	0.9
   400	2.76572e-05	0.9
   401	2.76599e-05	0.9
   402	2.76626e-05	0.9
   403	2.76653e-05	0.9
   404	2.7668e-05	0.9
   405	2.76707e-05	0.9
   406	2.76733e-05	0.9
   407	2.76759e-05	0.9
   408	2.76786e-05	0.9
   409	2.76812e-05	0.9
   410	2.76838e-05	0.9
   411	2.76864e-05	0.9
   412	2.7689e-05	0.9
   413	2.76915e-05	0.9
   414	2.76941e-05	0.9
   415	2.76966e-05	0.9
   416	2.76992e-05	0.9
   417	2.77017e-05	0.9
   418	2.77042e-05	0.9
   419	2.77067e-05	0.9
   420	2.77092e-05	0.9
   421	2.77117e-05	0.9
   422	2.77141e-05	0.9
   423	2.77166e-05	0.9
   424	2.7719e-05	0.9
   425	2.77215e-05	0.9
   426	2.77239e-05	0.9
   427	2.77263e-05	0.9
   428	2.77287e-05	0.9
   429	2.77311e-05	0.9
   430	2.77335e-05	0.9
   431	2.77358e-05	0.9
   432	2.77382e-05	0.9
   433	2.77406e-05	0.9
   434	2.77429e-05	0.9
   435	2.77452e-05	0.9
   436	2.77475e-05	0.9
   437	2.77499e-05	0.9
   438	2.77522e-05	0.9
   439	2.77545e-05	0.9
   440	2.77567e-05	0.9
   441	2.7759e-05	0.9
   442	2.77613e-05	0.9
   443	2.77635e-05	0.9
   444	2.77658e-05	0.9
   445	2.7768e-05	0.9
   446	2.77702e-05	0.9
   447	2.77724e-05	0.9
   448	2.77746e-05	0.9
   449	2.77768e-05	0.9
   450	2.7779e-05	0.9
   451	2.77812e-05	0.9
   452	2.77834e-05	0.9
   453	2.77855e-05	0.9
   454	2.77877e-05	0.9
   455	2.77898e-05	0.9
   456	2.7792e-05	0.9
   457	2.77941e-05	0.9
   458	2.77962e-05	0.9
   459	2.77983e-05	0.9
   460	2.78004e-05	0.9
   461	2.78025e-05	0.9
   462	2.78046e-05	0.9
   463	2.78066e-05	0.9
   464	2.78087e-05	0.9
   465	2.78108e-05	0.9
   466	2.78128e-05	0.9
   467	2.78148e-05	0.9
   468	2.78169e-05	0.9
   469	2.78189e-05	0.9
   470	2.78209e-05	0.9
   471	2.78229e-05	0.9
   472	2.78249e-05	0.9
   473	2.78269e-05	0.9
   474	2.78289e-05	0.9
   475	2.78309e-05	0.9
   476	2.78328e-05	0.9
   477	2.78348e-05	0.9
   478	2.78368e-05	0.9
   479	2.78387e-05	0.9
   480	2.78406e-05	0.9
   481	2.78426e-05	0.9
   482	2.78445e-05	0.9
   483	2.78464e-05	0.9
   484	2.78483e-05	0.9
   485	2.78502e-05	0.9
   486	2.78521e-05	0.9
   487	2.7854e-05	0.9
   488	2.78559e-05	0.9
   489	2.78577e-05	0.9
   490	2.78596e-05	0.9
   491	2.78614e-05	0.9
   492	2.78633e-05	0.9
   493	2.78651e-05	0.9
   494	2.7867e-05	0.9
   495	2.78688e-05	0.9
   496	2.78706e-05	0.9

Measurement: rout
  step	(1.3-0.5)/(id2-id1)
     1	49003.4
     2	72816
     3	102928
     4	139056
     5	180136
     6	224534
     7	270320
     8	315559
     9	358543
    10	397966
    11	432993
    12	463256
    13	488779
    14	509871
    15	527022
    16	540795
    17	551767
    18	560477
    19	567401
    20	572946
    21	577448
    22	581179
    23	584357
    24	587151
    25	589691
    26	592080
    27	594393
    28	596689
    29	599009
    30	601385
    31	603839
    32	606386
    33	609037
    34	611799
    35	614676
    36	617669
    37	620779
    38	624004
    39	627341
    40	630790
    41	634348
    42	638009
    43	641772
    44	645634
    45	649591
    46	653641
    47	657779
    48	662002
    49	666309
    50	670696
    51	675159
    52	679698
    53	684309
    54	688989
    55	693739
    56	698553
    57	703431
    58	708369
    59	713370
    60	718426
    61	723540
    62	728710
    63	733931
    64	739206
    65	744531
    66	749906
    67	755328
    68	760798
    69	766313
    70	771874
    71	777478
    72	783125
    73	788814
    74	794544
    75	800314
    76	806123
    77	811969
    78	817855
    79	823777
    80	829736
    81	835728
    82	841757
    83	847819
    84	853915
    85	860043
    86	866204
    87	872395
    88	878616
    89	884871
    90	891153
    91	897465
    92	903804
    93	910175
    94	916569
    95	922994
    96	929444
    97	935920
    98	942422
    99	948949
   100	955499
   101	962074
   102	968673
   103	975295
   104	981941
   105	988607
   106	995297
   107	1.00201e+06
   108	1.00874e+06
   109	1.01549e+06
   110	1.02226e+06
   111	1.02906e+06
   112	1.03587e+06
   113	1.0427e+06
   114	1.04955e+06
   115	1.05641e+06
   116	1.0633e+06
   117	1.0702e+06
   118	1.07712e+06
   119	1.08406e+06
   120	1.091e+06
   121	1.09797e+06
   122	1.10496e+06
   123	1.11195e+06
   124	1.11896e+06
   125	1.12599e+06
   126	1.13303e+06
   127	1.14008e+06
   128	1.14715e+06
   129	1.15423e+06
   130	1.16132e+06
   131	1.16843e+06
   132	1.17554e+06
   133	1.18266e+06
   134	1.1898e+06
   135	1.19695e+06
   136	1.20411e+06
   137	1.21128e+06
   138	1.21845e+06
   139	1.22564e+06
   140	1.23283e+06
   141	1.24004e+06
   142	1.24725e+06
   143	1.25447e+06
   144	1.2617e+06
   145	1.26893e+06
   146	1.27617e+06
   147	1.28342e+06
   148	1.29067e+06
   149	1.29793e+06
   150	1.30519e+06
   151	1.31246e+06
   152	1.31974e+06
   153	1.32702e+06
   154	1.3343e+06
   155	1.34159e+06
   156	1.34888e+06
   157	1.35617e+06
   158	1.36347e+06
   159	1.37077e+06
   160	1.37808e+06
   161	1.38538e+06
   162	1.39268e+06
   163	1.39999e+06
   164	1.4073e+06
   165	1.41461e+06
   166	1.42192e+06
   167	1.42923e+06
   168	1.43654e+06
   169	1.44386e+06
   170	1.45117e+06
   171	1.45848e+06
   172	1.46579e+06
   173	1.4731e+06
   174	1.4804e+06
   175	1.48771e+06
   176	1.49501e+06
   177	1.50231e+06
   178	1.50961e+06
   179	1.51691e+06
   180	1.5242e+06
   181	1.53149e+06
   182	1.53877e+06
   183	1.54606e+06
   184	1.55333e+06
   185	1.56061e+06
   186	1.56788e+06
   187	1.57514e+06
   188	1.58241e+06
   189	1.58966e+06
   190	1.59691e+06
   191	1.60415e+06
   192	1.6114e+06
   193	1.61863e+06
   194	1.62585e+06
   195	1.63308e+06
   196	1.64029e+06
   197	1.6475e+06
   198	1.6547e+06
   199	1.66189e+06
   200	1.66908e+06
   201	1.67626e+06
   202	1.68343e+06
   203	1.69059e+06
   204	1.69775e+06
   205	1.7049e+06
   206	1.71204e+06
   207	1.71918e+06
   208	1.72629e+06
   209	1.7334e+06
   210	1.74051e+06
   211	1.74761e+06
   212	1.75469e+06
   213	1.76177e+06
   214	1.76884e+06
   215	1.77589e+06
   216	1.78294e+06
   217	1.78998e+06
   218	1.79701e+06
   219	1.80402e+06
   220	1.81102e+06
   221	1.81803e+06
   222	1.82501e+06
   223	1.83198e+06
   224	1.83895e+06
   225	1.84589e+06
   226	1.85284e+06
   227	1.85976e+06
   228	1.86669e+06
   229	1.87359e+06
   230	1.88049e+06
   231	1.88736e+06
   232	1.89424e+06
   233	1.90109e+06
   234	1.90794e+06
   235	1.91477e+06
   236	1.9216e+06
   237	1.92841e+06
   238	1.93521e+06
   239	1.94199e+06
   240	1.94876e+06
   241	1.95553e+06
   242	1.96227e+06
   243	1.969e+06
   244	1.97573e+06
   245	1.98243e+06
   246	1.98913e+06
   247	1.99581e+06
   248	2.00247e+06
   249	2.00913e+06
   250	2.01577e+06
   251	2.02239e+06
   252	2.02901e+06
   253	2.0356e+06
   254	2.0422e+06
   255	2.04877e+06
   256	2.05533e+06
   257	2.06188e+06
   258	2.06841e+06
   259	2.07492e+06
   260	2.08142e+06
   261	2.08791e+06
   262	2.09439e+06
   263	2.10085e+06
   264	2.10729e+06
   265	2.11373e+06
   266	2.12014e+06
   267	2.12655e+06
   268	2.13293e+06
   269	2.13931e+06
   270	2.14567e+06
   271	2.15202e+06
   272	2.15835e+06
   273	2.16467e+06
   274	2.17097e+06
   275	2.17726e+06
   276	2.18353e+06
   277	2.18979e+06
   278	2.19605e+06
   279	2.20227e+06
   280	2.20848e+06
   281	2.21469e+06
   282	2.22087e+06
   283	2.22705e+06
   284	2.2332e+06
   285	2.23934e+06
   286	2.24546e+06
   287	2.25159e+06
   288	2.25768e+06
   289	2.26376e+06
   290	2.26983e+06
   291	2.27588e+06
   292	2.28191e+06
   293	2.28794e+06
   294	2.29396e+06
   295	2.29994e+06
   296	2.30593e+06
   297	2.31189e+06
   298	2.31785e+06
   299	2.32377e+06
   300	2.3297e+06
   301	2.3356e+06
   302	2.34149e+06
   303	2.34738e+06
   304	2.35323e+06
   305	2.35909e+06
   306	2.36492e+06
   307	2.37074e+06
   308	2.37654e+06
   309	2.38233e+06
   310	2.3881e+06
   311	2.39386e+06
   312	2.39961e+06
   313	2.40534e+06
   314	2.41105e+06
   315	2.41675e+06
   316	2.42245e+06
   317	2.42812e+06
   318	2.43377e+06
   319	2.43942e+06
   320	2.44504e+06
   321	2.45066e+06
   322	2.45627e+06
   323	2.46185e+06
   324	2.46742e+06
   325	2.47298e+06
   326	2.47851e+06
   327	2.48404e+06
   328	2.48957e+06
   329	2.49506e+06
   330	2.50055e+06
   331	2.50602e+06
   332	2.51149e+06
   333	2.51692e+06
   334	2.52235e+06
   335	2.52777e+06
   336	2.53317e+06
   337	2.53855e+06
   338	2.54393e+06
   339	2.5493e+06
   340	2.55464e+06
   341	2.55998e+06
   342	2.5653e+06
   343	2.5706e+06
   344	2.57589e+06
   345	2.58118e+06
   346	2.58643e+06
   347	2.59169e+06
   348	2.59692e+06
   349	2.60215e+06
   350	2.60736e+06
   351	2.61255e+06
   352	2.61774e+06
   353	2.62291e+06
   354	2.62808e+06
   355	2.63321e+06
   356	2.63833e+06
   357	2.64347e+06
   358	2.64858e+06
   359	2.65366e+06
   360	2.65875e+06
   361	2.6638e+06
   362	2.66886e+06
   363	2.67389e+06
   364	2.67893e+06
   365	2.68394e+06
   366	2.68895e+06
   367	2.69392e+06
   368	2.6989e+06
   369	2.70386e+06
   370	2.70882e+06
   371	2.71375e+06
   372	2.71867e+06
   373	2.7236e+06
   374	2.72849e+06
   375	2.73339e+06
   376	2.73825e+06
   377	2.74312e+06
   378	2.74797e+06
   379	2.7528e+06
   380	2.75764e+06
   381	2.76245e+06
   382	2.76725e+06
   383	2.77205e+06
   384	2.77681e+06
   385	2.78158e+06
   386	2.78632e+06
   387	2.79108e+06
   388	2.7958e+06
   389	2.80052e+06
   390	2.80523e+06
   391	2.80993e+06
   392	2.81462e+06
   393	2.81928e+06
   394	2.82395e+06
   395	2.82858e+06
   396	2.83325e+06
   397	2.83785e+06
   398	2.84247e+06
   399	2.84707e+06
   400	2.85167e+06
   401	2.85625e+06
   402	2.86082e+06
   403	2.86536e+06
   404	2.86993e+06
   405	2.87446e+06
   406	2.87898e+06
   407	2.88349e+06
   408	2.88802e+06
   409	2.8925e+06
   410	2.89698e+06
   411	2.90145e+06
   412	2.9059e+06
   413	2.91036e+06
   414	2.91479e+06
   415	2.91923e+06
   416	2.92365e+06
   417	2.92805e+06
   418	2.93244e+06
   419	2.93685e+06
   420	2.94121e+06
   421	2.94558e+06
   422	2.94993e+06
   423	2.95429e+06
   424	2.95862e+06
   425	2.96292e+06
   426	2.96726e+06
   427	2.97153e+06
   428	2.97586e+06
   429	2.98013e+06
   430	2.98442e+06
   431	2.98866e+06
   432	2.99293e+06
   433	2.99717e+06
   434	3.0014e+06
   435	3.00563e+06
   436	3.00985e+06
   437	3.01405e+06
   438	3.01825e+06
   439	3.02242e+06
   440	3.0266e+06
   441	3.03077e+06
   442	3.03494e+06
   443	3.03909e+06
   444	3.04321e+06
   445	3.04736e+06
   446	3.05147e+06
   447	3.0556e+06
   448	3.05968e+06
   449	3.06377e+06
   450	3.06788e+06
   451	3.07195e+06
   452	3.07601e+06
   453	3.08006e+06
   454	3.08412e+06
   455	3.08817e+06
   456	3.09219e+06
   457	3.09621e+06
   458	3.10023e+06
   459	3.10423e+06
   460	3.10823e+06
   461	3.11221e+06
   462	3.1162e+06
   463	3.12018e+06
   464	3.12412e+06
   465	3.12808e+06
   466	3.13202e+06
   467	3.13595e+06
   468	3.13989e+06
   469	3.1438e+06
   470	3.14771e+06
   471	3.15164e+06
   472	3.15553e+06
   473	3.1594e+06
   474	3.16329e+06
   475	3.16716e+06
   476	3.17102e+06
   477	3.17489e+06
   478	3.17872e+06
   479	3.18256e+06
   480	3.18639e+06
   481	3.19023e+06
   482	3.19403e+06
   483	3.19783e+06
   484	3.20163e+06
   485	3.20543e+06
   486	3.20922e+06
   487	3.213e+06
   488	3.21676e+06
   489	3.22053e+06
   490	3.2243e+06
   491	3.22802e+06
   492	3.23177e+06
   493	3.2355e+06
   494	3.23924e+06
   495	3.24294e+06
   496	3.24665e+06

Measurement: lambda
  step	1/(id0*rout)
     1	0.640431
     2	0.541491
     3	0.467187
     4	0.407208
     5	0.357343
     6	0.315536
     7	0.280532
     8	0.251364
     9	0.227179
    10	0.207193
    11	0.190693
    12	0.177048
    13	0.165716
    14	0.156241
    15	0.148252
    16	0.141448
    17	0.135591
    18	0.130491
    19	0.125999
    20	0.122001
    21	0.118405
    22	0.11514
    23	0.112151
    24	0.109394
    25	0.106834
    26	0.104443
    27	0.1022
    28	0.100085
    29	0.0980843
    30	0.0961859
    31	0.0943791
    32	0.0926555
    33	0.0910078
    34	0.0894297
    35	0.0879154
    36	0.0864604
    37	0.0850603
    38	0.0837115
    39	0.0824105
    40	0.0811542
    41	0.0799399
    42	0.0787652
    43	0.0776277
    44	0.0765253
    45	0.0754561
    46	0.0744184
    47	0.0734105
    48	0.0724308
    49	0.0714781
    50	0.070551
    51	0.0696484
    52	0.0687689
    53	0.0679117
    54	0.0670758
    55	0.0662601
    56	0.0654639
    57	0.0646863
    58	0.0639267
    59	0.0631842
    60	0.0624583
    61	0.0617483
    62	0.0610535
    63	0.0603735
    64	0.0597077
    65	0.0590557
    66	0.0584168
    67	0.0577907
    68	0.0571769
    69	0.0565753
    70	0.0559851
    71	0.0554061
    72	0.054838
    73	0.0542805
    74	0.0537332
    75	0.0531957
    76	0.052668
    77	0.0521497
    78	0.0516404
    79	0.05114
    80	0.0506481
    81	0.0501648
    82	0.0496895
    83	0.0492222
    84	0.0487627
    85	0.0483107
    86	0.0478661
    87	0.0474288
    88	0.0469984
    89	0.0465749
    90	0.0461581
    91	0.0457478
    92	0.045344
    93	0.0449463
    94	0.0445548
    95	0.0441692
    96	0.0437895
    97	0.0434155
    98	0.0430471
    99	0.0426841
   100	0.0423267
   101	0.0419743
   102	0.0416272
   103	0.0412851
   104	0.0409479
   105	0.0406156
   106	0.040288
   107	0.039965
   108	0.0396466
   109	0.0393328
   110	0.0390233
   111	0.0387179
   112	0.038417
   113	0.0381202
   114	0.0378274
   115	0.0375387
   116	0.0372538
   117	0.0369727
   118	0.0366956
   119	0.036422
   120	0.0361523
   121	0.035886
   122	0.0356232
   123	0.035364
   124	0.0351081
   125	0.0348556
   126	0.0346064
   127	0.0343604
   128	0.0341175
   129	0.0338778
   130	0.0336412
   131	0.0334075
   132	0.033177
   133	0.0329492
   134	0.0327244
   135	0.0325024
   136	0.0322832
   137	0.0320667
   138	0.0318529
   139	0.0316417
   140	0.0314332
   141	0.0312273
   142	0.0310239
   143	0.0308229
   144	0.0306244
   145	0.0304283
   146	0.0302347
   147	0.0300433
   148	0.0298543
   149	0.0296675
   150	0.0294829
   151	0.0293006
   152	0.0291203
   153	0.0289424
   154	0.0287663
   155	0.0285925
   156	0.0284207
   157	0.0282508
   158	0.028083
   159	0.0279171
   160	0.0277531
   161	0.0275911
   162	0.0274309
   163	0.0272725
   164	0.027116
   165	0.0269611
   166	0.0268082
   167	0.0266569
   168	0.0265074
   169	0.0263594
   170	0.0262132
   171	0.0260687
   172	0.0259258
   173	0.0257844
   174	0.0256446
   175	0.0255064
   176	0.0253697
   177	0.0252345
   178	0.0251008
   179	0.0249685
   180	0.0248377
   181	0.0247084
   182	0.0245804
   183	0.0244538
   184	0.0243287
   185	0.0242048
   186	0.0240823
   187	0.0239611
   188	0.0238411
   189	0.0237225
   190	0.0236051
   191	0.023489
   192	0.0233741
   193	0.0232603
   194	0.0231479
   195	0.0230365
   196	0.0229264
   197	0.0228174
   198	0.0227095
   199	0.0226028
   200	0.0224971
   201	0.0223925
   202	0.0222891
   203	0.0221866
   204	0.0220852
   205	0.0219849
   206	0.0218855
   207	0.0217872
   208	0.0216899
   209	0.0215936
   210	0.0214982
   211	0.0214037
   212	0.0213103
   213	0.0212177
   214	0.0211261
   215	0.0210354
   216	0.0209456
   217	0.0208566
   218	0.0207686
   219	0.0206815
   220	0.0205951
   221	0.0205095
   222	0.0204249
   223	0.0203411
   224	0.020258
   225	0.0201758
   226	0.0200943
   227	0.0200137
   228	0.0199338
   229	0.0198547
   230	0.0197763
   231	0.0196987
   232	0.0196217
   233	0.0195456
   234	0.0194702
   235	0.0193954
   236	0.0193213
   237	0.019248
   238	0.0191753
   239	0.0191033
   240	0.019032
   241	0.0189613
   242	0.0188913
   243	0.0188219
   244	0.0187531
   245	0.018685
   246	0.0186175
   247	0.0185506
   248	0.0184844
   249	0.0184187
   250	0.0183536
   251	0.0182892
   252	0.0182252
   253	0.0181619
   254	0.018099
   255	0.0180368
   256	0.0179751
   257	0.0179139
   258	0.0178533
   259	0.0177933
   260	0.0177338
   261	0.0176747
   262	0.0176162
   263	0.0175582
   264	0.0175007
   265	0.0174436
   266	0.0173872
   267	0.0173311
   268	0.0172756
   269	0.0172205
   270	0.0171659
   271	0.0171117
   272	0.0170581
   273	0.0170048
   274	0.016952
   275	0.0168997
   276	0.0168478
   277	0.0167963
   278	0.0167452
   279	0.0166946
   280	0.0166445
   281	0.0165946
   282	0.0165453
   283	0.0164962
   284	0.0164477
   285	0.0163995
   286	0.0163518
   287	0.0163043
   288	0.0162573
   289	0.0162107
   290	0.0161644
   291	0.0161185
   292	0.016073
   293	0.0160278
   294	0.0159829
   295	0.0159386
   296	0.0158944
   297	0.0158507
   298	0.0158072
   299	0.0157642
   300	0.0157215
   301	0.0156791
   302	0.015637
   303	0.0155952
   304	0.0155538
   305	0.0155127
   306	0.0154719
   307	0.0154314
   308	0.0153912
   309	0.0153514
   310	0.0153118
   311	0.0152726
   312	0.0152336
   313	0.0151949
   314	0.0151565
   315	0.0151185
   316	0.0150806
   317	0.0150431
   318	0.0150058
   319	0.0149688
   320	0.0149321
   321	0.0148957
   322	0.0148595
   323	0.0148236
   324	0.014788
   325	0.0147526
   326	0.0147175
   327	0.0146826
   328	0.0146479
   329	0.0146136
   330	0.0145794
   331	0.0145455
   332	0.0145118
   333	0.0144785
   334	0.0144453
   335	0.0144124
   336	0.0143797
   337	0.0143472
   338	0.014315
   339	0.0142829
   340	0.0142511
   341	0.0142195
   342	0.0141882
   343	0.014157
   344	0.0141261
   345	0.0140953
   346	0.0140649
   347	0.0140345
   348	0.0140044
   349	0.0139745
   350	0.0139448
   351	0.0139154
   352	0.013886
   353	0.0138569
   354	0.0138279
   355	0.0137993
   356	0.0137708
   357	0.0137424
   358	0.0137142
   359	0.0136863
   360	0.0136585
   361	0.0136309
   362	0.0136034
   363	0.0135762
   364	0.0135491
   365	0.0135222
   366	0.0134955
   367	0.013469
   368	0.0134426
   369	0.0134164
   370	0.0133903
   371	0.0133644
   372	0.0133388
   373	0.0133131
   374	0.0132878
   375	0.0132625
   376	0.0132375
   377	0.0132125
   378	0.0131877
   379	0.0131632
   380	0.0131387
   381	0.0131143
   382	0.0130902
   383	0.0130661
   384	0.0130424
   385	0.0130186
   386	0.0129951
   387	0.0129715
   388	0.0129483
   389	0.0129251
   390	0.0129021
   391	0.0128792
   392	0.0128564
   393	0.0128339
   394	0.0128113
   395	0.0127891
   396	0.0127667
   397	0.0127447
   398	0.0127227
   399	0.0127009
   400	0.0126792
   401	0.0126577
   402	0.0126362
   403	0.0126149
   404	0.0125937
   405	0.0125726
   406	0.0125516
   407	0.0125308
   408	0.01251
   409	0.0124894
   410	0.0124689
   411	0.0124486
   412	0.0124283
   413	0.0124081
   414	0.0123881
   415	0.0123682
   416	0.0123483
   417	0.0123287
   418	0.0123091
   419	0.0122895
   420	0.0122702
   421	0.0122509
   422	0.0122317
   423	0.0122126
   424	0.0121936
   425	0.0121748
   426	0.012156
   427	0.0121375
   428	0.0121188
   429	0.0121003
   430	0.0120819
   431	0.0120638
   432	0.0120455
   433	0.0120274
   434	0.0120095
   435	0.0119916
   436	0.0119738
   437	0.0119561
   438	0.0119384
   439	0.011921
   440	0.0119035
   441	0.0118862
   442	0.0118689
   443	0.0118517
   444	0.0118347
   445	0.0118177
   446	0.0118008
   447	0.0117839
   448	0.0117673
   449	0.0117506
   450	0.011734
   451	0.0117175
   452	0.0117011
   453	0.0116848
   454	0.0116685
   455	0.0116523
   456	0.0116363
   457	0.0116203
   458	0.0116044
   459	0.0115885
   460	0.0115727
   461	0.0115571
   462	0.0115414
   463	0.0115258
   464	0.0115104
   465	0.011495
   466	0.0114797
   467	0.0114645
   468	0.0114492
   469	0.0114342
   470	0.0114191
   471	0.0114041
   472	0.0113892
   473	0.0113744
   474	0.0113597
   475	0.011345
   476	0.0113304
   477	0.0113158
   478	0.0113013
   479	0.0112869
   480	0.0112725
   481	0.0112582
   482	0.011244
   483	0.0112299
   484	0.0112158
   485	0.0112017
   486	0.0111877
   487	0.0111738
   488	0.01116
   489	0.0111462
   490	0.0111324
   491	0.0111189
   492	0.0111052
   493	0.0110917
   494	0.0110781
   495	0.0110648
   496	0.0110514

Total elapsed time: 16.872 seconds.

