LTspice 24.0.12 for Windows
Circuit: * C:\Users\tomto\Documents\skola\NAO\cv1\N21-mos.asc
Start Time: Wed Feb 26 12:45:20 2025
solver = Normal
Maximum thread count: 16



Warning: Pd = 0 is less than W.
Warning: Ps = 0 is less than W.
.step n=1



.step n=2



.step n=3



.step n=4



.step n=5



.step n=6



.step n=7



.step n=8
tnom = 27
temp = 27
method = modified trap
.step n=9


Measurement: uth
  step	v(vg)	at
     1	0.346127	0.346127
     2	0.405213	0.405213
     3	0.406836	0.406836
     4	0.378744	0.378744
     5	0.379089	0.379089
     6	0.363272	0.363272
     7	0.355593	0.355593
     8	0.352937	0.352937
     9	0.352903	0.352903

Total elapsed time: 0.433 seconds.

