Questionable use of curly braces in ".meas dc uth find {v(vg)-v(sb)} when id(m1)=500n"
    Error: undefined symbol in: "[v](vg)-v(sb)"
LTspice 24.0.12 for Windows
Circuit: * C:\Users\tomto\Documents\skola\Skola\NAO\cv1\N3-mos.asc
Start Time: Wed Mar 12 18:47:04 2025
solver = Normal
Maximum thread count: 16
tnom = 27
temp = 27
method = modified trap
Warning: Pd = 0 is less than W.
Warning: Ps = 0 is less than W.

uth: (v(vg)-v(sb))=0.541525 at 0.541525

Total elapsed time: 0.195 seconds.

