LTspice 24.0.12 for Windows
Circuit: * C:\Users\tomto\Documents\skola\Skola\NAO\cv1\N4-mos.asc
Start Time: Wed Mar 12 19:43:33 2025
solver = Normal
Maximum thread count: 16
tnom = 27
temp = 27
method = modified trap
Warning: Pd = 0 is less than W.
Warning: Ps = 0 is less than W.

id1: id(m1)=2.41256e-05 at 0.5
id2: id(m1)=2.49863e-05 at 1.3
id0: id(m1)=2.45701e-05 at 0.9
rout: (1.3-0.5)/(id2-id1)=929444
lambda: 1/(id0*rout)=0.0437895

Total elapsed time: 0.124 seconds.

