LTspice 24.0.12 for Windows
Circuit: * C:\Users\tomto\Documents\skola\NAO\cv1\P1-mos.asc
Start Time: Sat Mar  1 03:20:33 2025
solver = Normal
Maximum thread count: 16



Warning: Pd = 0 is less than W.
Warning: Ps = 0 is less than W.
.step lset=1e-07



.step lset=1.2e-07



.step lset=1.4e-07



.step lset=1.6e-07



.step lset=1.8e-07



.step lset=2e-07



.step lset=2.2e-07



.step lset=2.4e-07



.step lset=2.6e-07



.step lset=2.8e-07



.step lset=3e-07



.step lset=3.2e-07



.step lset=3.4e-07



.step lset=3.6e-07



.step lset=3.8e-07



.step lset=4e-07



.step lset=4.2e-07



.step lset=4.4e-07



.step lset=4.6e-07



.step lset=4.8e-07



.step lset=5e-07



.step lset=5.2e-07



.step lset=5.4e-07



.step lset=5.6e-07



.step lset=5.8e-07



.step lset=6e-07



.step lset=6.2e-07



.step lset=6.4e-07



.step lset=6.6e-07



.step lset=6.8e-07



.step lset=7e-07



.step lset=7.2e-07



.step lset=7.4e-07



.step lset=7.6e-07



.step lset=7.8e-07



.step lset=8e-07



.step lset=8.20000000000001e-07



.step lset=8.40000000000001e-07



.step lset=8.60000000000001e-07



.step lset=8.80000000000001e-07



.step lset=9.00000000000001e-07



.step lset=9.20000000000001e-07



.step lset=9.40000000000001e-07



.step lset=9.60000000000001e-07



.step lset=9.80000000000001e-07



.step lset=1e-06



.step lset=1.02e-06



.step lset=1.04e-06



.step lset=1.06e-06



.step lset=1.08e-06



.step lset=1.1e-06



.step lset=1.12e-06



.step lset=1.14e-06



.step lset=1.16e-06



.step lset=1.18e-06



.step lset=1.2e-06



.step lset=1.22e-06



.step lset=1.24e-06



.step lset=1.26e-06



.step lset=1.28e-06



.step lset=1.3e-06



.step lset=1.32e-06



.step lset=1.34e-06



.step lset=1.36e-06



.step lset=1.38e-06



.step lset=1.4e-06



.step lset=1.42e-06



.step lset=1.44e-06



.step lset=1.46e-06



.step lset=1.48e-06



.step lset=1.5e-06



.step lset=1.52e-06



.step lset=1.54e-06



.step lset=1.56e-06



.step lset=1.58e-06



.step lset=1.6e-06



.step lset=1.62e-06



.step lset=1.64e-06



.step lset=1.66e-06



.step lset=1.68e-06



.step lset=1.7e-06



.step lset=1.72e-06



.step lset=1.74e-06



.step lset=1.76e-06



.step lset=1.78e-06



.step lset=1.8e-06



.step lset=1.82e-06



.step lset=1.84e-06



.step lset=1.86e-06



.step lset=1.88e-06



.step lset=1.9e-06



.step lset=1.92e-06



.step lset=1.94e-06



.step lset=1.96e-06



.step lset=1.98e-06



.step lset=2e-06



.step lset=2.02e-06



.step lset=2.04e-06



.step lset=2.06e-06



.step lset=2.08e-06



.step lset=2.1e-06



.step lset=2.12e-06



.step lset=2.14e-06



.step lset=2.16e-06



.step lset=2.18e-06



.step lset=2.2e-06



.step lset=2.22e-06



.step lset=2.24e-06



.step lset=2.26e-06



.step lset=2.28e-06



.step lset=2.3e-06



.step lset=2.32e-06



.step lset=2.34e-06



.step lset=2.36e-06



.step lset=2.38e-06



.step lset=2.4e-06



.step lset=2.42e-06



.step lset=2.44e-06



.step lset=2.46e-06



.step lset=2.48e-06



.step lset=2.5e-06



.step lset=2.52e-06



.step lset=2.54e-06



.step lset=2.56e-06



.step lset=2.58e-06



.step lset=2.6e-06



.step lset=2.61999999999999e-06



.step lset=2.63999999999999e-06



.step lset=2.65999999999999e-06



.step lset=2.67999999999999e-06



.step lset=2.69999999999999e-06



.step lset=2.71999999999999e-06



.step lset=2.73999999999999e-06



.step lset=2.75999999999999e-06



.step lset=2.77999999999999e-06



.step lset=2.79999999999999e-06



.step lset=2.81999999999999e-06



.step lset=2.83999999999999e-06



.step lset=2.85999999999999e-06



.step lset=2.87999999999999e-06



.step lset=2.89999999999999e-06



.step lset=2.91999999999999e-06



.step lset=2.93999999999999e-06



.step lset=2.95999999999999e-06



.step lset=2.97999999999999e-06



.step lset=2.99999999999999e-06



.step lset=3.01999999999999e-06



.step lset=3.03999999999999e-06



.step lset=3.05999999999999e-06



.step lset=3.07999999999999e-06



.step lset=3.09999999999999e-06



.step lset=3.11999999999999e-06



.step lset=3.13999999999999e-06



.step lset=3.15999999999999e-06



.step lset=3.17999999999999e-06



.step lset=3.19999999999999e-06



.step lset=3.21999999999999e-06



.step lset=3.23999999999999e-06



.step lset=3.25999999999999e-06



.step lset=3.27999999999999e-06



.step lset=3.29999999999999e-06



.step lset=3.31999999999999e-06



.step lset=3.33999999999999e-06



.step lset=3.35999999999999e-06



.step lset=3.37999999999999e-06



.step lset=3.39999999999999e-06



.step lset=3.41999999999999e-06



.step lset=3.43999999999999e-06



.step lset=3.45999999999999e-06



.step lset=3.47999999999999e-06



.step lset=3.49999999999999e-06



.step lset=3.51999999999999e-06



.step lset=3.53999999999999e-06



.step lset=3.55999999999999e-06



.step lset=3.57999999999999e-06



.step lset=3.59999999999999e-06



.step lset=3.61999999999999e-06



.step lset=3.63999999999999e-06



.step lset=3.65999999999998e-06



.step lset=3.67999999999998e-06



.step lset=3.69999999999998e-06



.step lset=3.71999999999998e-06



.step lset=3.73999999999998e-06



.step lset=3.75999999999998e-06



.step lset=3.77999999999998e-06



.step lset=3.79999999999998e-06



.step lset=3.81999999999998e-06



.step lset=3.83999999999998e-06



.step lset=3.85999999999998e-06



.step lset=3.87999999999998e-06



.step lset=3.89999999999998e-06



.step lset=3.91999999999998e-06



.step lset=3.93999999999998e-06



.step lset=3.95999999999998e-06



.step lset=3.97999999999998e-06



.step lset=3.99999999999998e-06



.step lset=4.01999999999998e-06



.step lset=4.03999999999998e-06



.step lset=4.05999999999998e-06



.step lset=4.07999999999998e-06



.step lset=4.09999999999998e-06



.step lset=4.11999999999998e-06



.step lset=4.13999999999998e-06



.step lset=4.15999999999998e-06



.step lset=4.17999999999998e-06



.step lset=4.19999999999998e-06



.step lset=4.21999999999998e-06



.step lset=4.23999999999998e-06



.step lset=4.25999999999998e-06



.step lset=4.27999999999998e-06



.step lset=4.29999999999998e-06



.step lset=4.31999999999998e-06



.step lset=4.33999999999998e-06



.step lset=4.35999999999998e-06



.step lset=4.37999999999998e-06



.step lset=4.39999999999998e-06



.step lset=4.41999999999998e-06



.step lset=4.43999999999998e-06



.step lset=4.45999999999998e-06



.step lset=4.47999999999998e-06



.step lset=4.49999999999998e-06



.step lset=4.51999999999998e-06



.step lset=4.53999999999998e-06



.step lset=4.55999999999998e-06



.step lset=4.57999999999998e-06



.step lset=4.59999999999998e-06



.step lset=4.61999999999998e-06



.step lset=4.63999999999998e-06



.step lset=4.65999999999998e-06



.step lset=4.67999999999998e-06



.step lset=4.69999999999998e-06



.step lset=4.71999999999998e-06



.step lset=4.73999999999997e-06



.step lset=4.75999999999997e-06



.step lset=4.77999999999997e-06



.step lset=4.79999999999997e-06



.step lset=4.81999999999997e-06



.step lset=4.83999999999997e-06



.step lset=4.85999999999997e-06



.step lset=4.87999999999997e-06



.step lset=4.89999999999997e-06



.step lset=4.91999999999997e-06



.step lset=4.93999999999997e-06



.step lset=4.95999999999997e-06



.step lset=4.97999999999997e-06



.step lset=4.99999999999997e-06



.step lset=5.01999999999997e-06



.step lset=5.03999999999997e-06



.step lset=5.05999999999997e-06



.step lset=5.07999999999997e-06



.step lset=5.09999999999997e-06



.step lset=5.11999999999997e-06



.step lset=5.13999999999997e-06



.step lset=5.15999999999997e-06



.step lset=5.17999999999997e-06



.step lset=5.19999999999997e-06



.step lset=5.21999999999997e-06



.step lset=5.23999999999997e-06



.step lset=5.25999999999997e-06



.step lset=5.27999999999997e-06



.step lset=5.29999999999997e-06



.step lset=5.31999999999997e-06



.step lset=5.33999999999997e-06



.step lset=5.35999999999997e-06



.step lset=5.37999999999997e-06



.step lset=5.39999999999997e-06



.step lset=5.41999999999997e-06



.step lset=5.43999999999997e-06



.step lset=5.45999999999997e-06



.step lset=5.47999999999997e-06



.step lset=5.49999999999997e-06



.step lset=5.51999999999997e-06



.step lset=5.53999999999997e-06



.step lset=5.55999999999997e-06



.step lset=5.57999999999997e-06



.step lset=5.59999999999997e-06



.step lset=5.61999999999997e-06



.step lset=5.63999999999997e-06



.step lset=5.65999999999997e-06



.step lset=5.67999999999997e-06



.step lset=5.69999999999997e-06



.step lset=5.71999999999997e-06



.step lset=5.73999999999997e-06



.step lset=5.75999999999997e-06



.step lset=5.77999999999996e-06



.step lset=5.79999999999996e-06



.step lset=5.81999999999996e-06



.step lset=5.83999999999996e-06



.step lset=5.85999999999996e-06



.step lset=5.87999999999996e-06



.step lset=5.89999999999996e-06



.step lset=5.91999999999996e-06



.step lset=5.93999999999996e-06



.step lset=5.95999999999996e-06



.step lset=5.97999999999996e-06



.step lset=5.99999999999996e-06



.step lset=6.01999999999996e-06



.step lset=6.03999999999996e-06



.step lset=6.05999999999996e-06



.step lset=6.07999999999996e-06



.step lset=6.09999999999996e-06



.step lset=6.11999999999996e-06



.step lset=6.13999999999996e-06



.step lset=6.15999999999996e-06



.step lset=6.17999999999996e-06



.step lset=6.19999999999996e-06



.step lset=6.21999999999996e-06



.step lset=6.23999999999996e-06



.step lset=6.25999999999996e-06



.step lset=6.27999999999996e-06



.step lset=6.29999999999996e-06



.step lset=6.31999999999996e-06



.step lset=6.33999999999996e-06



.step lset=6.35999999999996e-06



.step lset=6.37999999999996e-06



.step lset=6.39999999999996e-06



.step lset=6.41999999999996e-06



.step lset=6.43999999999996e-06



.step lset=6.45999999999996e-06



.step lset=6.47999999999996e-06



.step lset=6.49999999999996e-06



.step lset=6.51999999999996e-06



.step lset=6.53999999999996e-06



.step lset=6.55999999999996e-06



.step lset=6.57999999999996e-06



.step lset=6.59999999999996e-06



.step lset=6.61999999999996e-06



.step lset=6.63999999999996e-06



.step lset=6.65999999999996e-06



.step lset=6.67999999999996e-06



.step lset=6.69999999999996e-06



.step lset=6.71999999999996e-06



.step lset=6.73999999999996e-06



.step lset=6.75999999999996e-06



.step lset=6.77999999999996e-06



.step lset=6.79999999999996e-06



.step lset=6.81999999999996e-06



.step lset=6.83999999999995e-06



.step lset=6.85999999999995e-06



.step lset=6.87999999999995e-06



.step lset=6.89999999999995e-06



.step lset=6.91999999999995e-06



.step lset=6.93999999999995e-06



.step lset=6.95999999999995e-06



.step lset=6.97999999999995e-06



.step lset=6.99999999999995e-06



.step lset=7.01999999999995e-06



.step lset=7.03999999999995e-06



.step lset=7.05999999999995e-06



.step lset=7.07999999999995e-06



.step lset=7.09999999999995e-06



.step lset=7.11999999999995e-06



.step lset=7.13999999999995e-06



.step lset=7.15999999999995e-06



.step lset=7.17999999999995e-06



.step lset=7.19999999999995e-06



.step lset=7.21999999999995e-06



.step lset=7.23999999999995e-06



.step lset=7.25999999999995e-06



.step lset=7.27999999999995e-06



.step lset=7.29999999999995e-06



.step lset=7.31999999999995e-06



.step lset=7.33999999999995e-06



.step lset=7.35999999999995e-06



.step lset=7.37999999999995e-06



.step lset=7.39999999999995e-06



.step lset=7.41999999999995e-06



.step lset=7.43999999999995e-06



.step lset=7.45999999999995e-06



.step lset=7.47999999999995e-06



.step lset=7.49999999999995e-06



.step lset=7.51999999999995e-06



.step lset=7.53999999999995e-06



.step lset=7.55999999999995e-06



.step lset=7.57999999999995e-06



.step lset=7.59999999999995e-06



.step lset=7.61999999999995e-06



.step lset=7.63999999999995e-06



.step lset=7.65999999999995e-06



.step lset=7.67999999999995e-06



.step lset=7.69999999999995e-06



.step lset=7.71999999999995e-06



.step lset=7.73999999999995e-06



.step lset=7.75999999999995e-06



.step lset=7.77999999999995e-06



.step lset=7.79999999999995e-06



.step lset=7.81999999999995e-06



.step lset=7.83999999999995e-06



.step lset=7.85999999999995e-06



.step lset=7.87999999999994e-06



.step lset=7.89999999999994e-06



.step lset=7.91999999999994e-06



.step lset=7.93999999999994e-06



.step lset=7.95999999999994e-06



.step lset=7.97999999999994e-06



.step lset=7.99999999999994e-06



.step lset=8.01999999999994e-06



.step lset=8.03999999999994e-06



.step lset=8.05999999999994e-06



.step lset=8.07999999999994e-06



.step lset=8.09999999999994e-06



.step lset=8.11999999999994e-06



.step lset=8.13999999999994e-06



.step lset=8.15999999999994e-06



.step lset=8.17999999999994e-06



.step lset=8.19999999999994e-06



.step lset=8.21999999999994e-06



.step lset=8.23999999999994e-06



.step lset=8.25999999999994e-06



.step lset=8.27999999999994e-06



.step lset=8.29999999999994e-06



.step lset=8.31999999999994e-06



.step lset=8.33999999999994e-06



.step lset=8.35999999999994e-06



.step lset=8.37999999999994e-06



.step lset=8.39999999999994e-06



.step lset=8.41999999999994e-06



.step lset=8.43999999999994e-06



.step lset=8.45999999999994e-06



.step lset=8.47999999999994e-06



.step lset=8.49999999999994e-06



.step lset=8.51999999999994e-06



.step lset=8.53999999999994e-06



.step lset=8.55999999999994e-06



.step lset=8.57999999999994e-06



.step lset=8.59999999999994e-06



.step lset=8.61999999999994e-06



.step lset=8.63999999999994e-06



.step lset=8.65999999999994e-06



.step lset=8.67999999999994e-06



.step lset=8.69999999999994e-06



.step lset=8.71999999999994e-06



.step lset=8.73999999999994e-06



.step lset=8.75999999999994e-06



.step lset=8.77999999999994e-06



.step lset=8.79999999999994e-06



.step lset=8.81999999999994e-06



.step lset=8.83999999999994e-06



.step lset=8.85999999999994e-06



.step lset=8.87999999999994e-06



.step lset=8.89999999999994e-06



.step lset=8.91999999999993e-06



.step lset=8.93999999999993e-06



.step lset=8.95999999999993e-06



.step lset=8.97999999999993e-06



.step lset=8.99999999999993e-06



.step lset=9.01999999999993e-06



.step lset=9.03999999999993e-06



.step lset=9.05999999999993e-06



.step lset=9.07999999999993e-06



.step lset=9.09999999999993e-06



.step lset=9.11999999999993e-06



.step lset=9.13999999999993e-06



.step lset=9.15999999999993e-06



.step lset=9.17999999999993e-06



.step lset=9.19999999999993e-06



.step lset=9.21999999999993e-06



.step lset=9.23999999999993e-06



.step lset=9.25999999999993e-06



.step lset=9.27999999999993e-06



.step lset=9.29999999999993e-06



.step lset=9.31999999999993e-06



.step lset=9.33999999999993e-06



.step lset=9.35999999999993e-06



.step lset=9.37999999999993e-06



.step lset=9.39999999999993e-06



.step lset=9.41999999999993e-06



.step lset=9.43999999999993e-06



.step lset=9.45999999999993e-06



.step lset=9.47999999999993e-06



.step lset=9.49999999999993e-06



.step lset=9.51999999999993e-06



.step lset=9.53999999999993e-06



.step lset=9.55999999999993e-06



.step lset=9.57999999999993e-06



.step lset=9.59999999999993e-06



.step lset=9.61999999999993e-06



.step lset=9.63999999999993e-06



.step lset=9.65999999999993e-06



.step lset=9.67999999999993e-06



.step lset=9.69999999999993e-06



.step lset=9.71999999999993e-06



.step lset=9.73999999999993e-06



.step lset=9.75999999999993e-06



.step lset=9.77999999999993e-06



.step lset=9.79999999999993e-06



.step lset=9.81999999999993e-06



.step lset=9.83999999999993e-06



.step lset=9.85999999999993e-06



.step lset=9.87999999999993e-06



.step lset=9.89999999999993e-06



.step lset=9.91999999999993e-06



.step lset=9.93999999999993e-06



.step lset=9.95999999999992e-06



.step lset=9.97999999999992e-06
tnom = 27
temp = 27
method = modified trap
.step lset=9.99999999999992e-06


Measurement: id0
  step	is(m1)	at
     1	3.40096e-07	0.9
     2	2.99912e-07	0.9
     3	2.74383e-07	0.9
     4	2.58859e-07	0.9
     5	2.49172e-07	0.9
     6	2.42935e-07	0.9
     7	2.3881e-07	0.9
     8	2.36023e-07	0.9
     9	2.3411e-07	0.9
    10	2.32783e-07	0.9
    11	2.31857e-07	0.9
    12	2.31213e-07	0.9
    13	2.30771e-07	0.9
    14	2.30473e-07	0.9
    15	2.30283e-07	0.9
    16	2.30173e-07	0.9
    17	2.30122e-07	0.9
    18	2.30117e-07	0.9
    19	2.30146e-07	0.9
    20	2.30201e-07	0.9
    21	2.30277e-07	0.9
    22	2.30367e-07	0.9
    23	2.3047e-07	0.9
    24	2.30581e-07	0.9
    25	2.30699e-07	0.9
    26	2.30821e-07	0.9
    27	2.30947e-07	0.9
    28	2.31075e-07	0.9
    29	2.31204e-07	0.9
    30	2.31334e-07	0.9
    31	2.31463e-07	0.9
    32	2.31592e-07	0.9
    33	2.31721e-07	0.9
    34	2.31848e-07	0.9
    35	2.31973e-07	0.9
    36	2.32098e-07	0.9
    37	2.3222e-07	0.9
    38	2.3234e-07	0.9
    39	2.32459e-07	0.9
    40	2.32576e-07	0.9
    41	2.3269e-07	0.9
    42	2.32803e-07	0.9
    43	2.32914e-07	0.9
    44	2.33022e-07	0.9
    45	2.33129e-07	0.9
    46	2.33233e-07	0.9
    47	2.33335e-07	0.9
    48	2.33436e-07	0.9
    49	2.33534e-07	0.9
    50	2.33631e-07	0.9
    51	2.33726e-07	0.9
    52	2.33818e-07	0.9
    53	2.33909e-07	0.9
    54	2.33999e-07	0.9
    55	2.34086e-07	0.9
    56	2.34172e-07	0.9
    57	2.34256e-07	0.9
    58	2.34338e-07	0.9
    59	2.34419e-07	0.9
    60	2.34498e-07	0.9
    61	2.34576e-07	0.9
    62	2.34652e-07	0.9
    63	2.34727e-07	0.9
    64	2.348e-07	0.9
    65	2.34872e-07	0.9
    66	2.34943e-07	0.9
    67	2.35012e-07	0.9
    68	2.3508e-07	0.9
    69	2.35146e-07	0.9
    70	2.35212e-07	0.9
    71	2.35276e-07	0.9
    72	2.35339e-07	0.9
    73	2.35401e-07	0.9
    74	2.35462e-07	0.9
    75	2.35521e-07	0.9
    76	2.3558e-07	0.9
    77	2.35637e-07	0.9
    78	2.35694e-07	0.9
    79	2.35749e-07	0.9
    80	2.35804e-07	0.9
    81	2.35857e-07	0.9
    82	2.3591e-07	0.9
    83	2.35961e-07	0.9
    84	2.36012e-07	0.9
    85	2.36062e-07	0.9
    86	2.36111e-07	0.9
    87	2.36159e-07	0.9
    88	2.36207e-07	0.9
    89	2.36253e-07	0.9
    90	2.36299e-07	0.9
    91	2.36344e-07	0.9
    92	2.36388e-07	0.9
    93	2.36432e-07	0.9
    94	2.36475e-07	0.9
    95	2.36517e-07	0.9
    96	2.36558e-07	0.9
    97	2.36599e-07	0.9
    98	2.36639e-07	0.9
    99	2.36679e-07	0.9
   100	2.36717e-07	0.9
   101	2.36756e-07	0.9
   102	2.36793e-07	0.9
   103	2.3683e-07	0.9
   104	2.36867e-07	0.9
   105	2.36903e-07	0.9
   106	2.36938e-07	0.9
   107	2.36973e-07	0.9
   108	2.37007e-07	0.9
   109	2.37041e-07	0.9
   110	2.37074e-07	0.9
   111	2.37107e-07	0.9
   112	2.37139e-07	0.9
   113	2.37171e-07	0.9
   114	2.37202e-07	0.9
   115	2.37233e-07	0.9
   116	2.37263e-07	0.9
   117	2.37293e-07	0.9
   118	2.37323e-07	0.9
   119	2.37352e-07	0.9
   120	2.3738e-07	0.9
   121	2.37408e-07	0.9
   122	2.37436e-07	0.9
   123	2.37464e-07	0.9
   124	2.37491e-07	0.9
   125	2.37517e-07	0.9
   126	2.37544e-07	0.9
   127	2.37569e-07	0.9
   128	2.37595e-07	0.9
   129	2.3762e-07	0.9
   130	2.37645e-07	0.9
   131	2.37669e-07	0.9
   132	2.37694e-07	0.9
   133	2.37718e-07	0.9
   134	2.37741e-07	0.9
   135	2.37764e-07	0.9
   136	2.37787e-07	0.9
   137	2.3781e-07	0.9
   138	2.37832e-07	0.9
   139	2.37854e-07	0.9
   140	2.37876e-07	0.9
   141	2.37897e-07	0.9
   142	2.37918e-07	0.9
   143	2.37939e-07	0.9
   144	2.3796e-07	0.9
   145	2.3798e-07	0.9
   146	2.38e-07	0.9
   147	2.3802e-07	0.9
   148	2.38039e-07	0.9
   149	2.38059e-07	0.9
   150	2.38078e-07	0.9
   151	2.38096e-07	0.9
   152	2.38115e-07	0.9
   153	2.38133e-07	0.9
   154	2.38151e-07	0.9
   155	2.38169e-07	0.9
   156	2.38187e-07	0.9
   157	2.38205e-07	0.9
   158	2.38222e-07	0.9
   159	2.38239e-07	0.9
   160	2.38256e-07	0.9
   161	2.38272e-07	0.9
   162	2.38289e-07	0.9
   163	2.38305e-07	0.9
   164	2.38321e-07	0.9
   165	2.38337e-07	0.9
   166	2.38353e-07	0.9
   167	2.38368e-07	0.9
   168	2.38383e-07	0.9
   169	2.38398e-07	0.9
   170	2.38413e-07	0.9
   171	2.38428e-07	0.9
   172	2.38443e-07	0.9
   173	2.38457e-07	0.9
   174	2.38472e-07	0.9
   175	2.38486e-07	0.9
   176	2.385e-07	0.9
   177	2.38513e-07	0.9
   178	2.38527e-07	0.9
   179	2.38541e-07	0.9
   180	2.38554e-07	0.9
   181	2.38567e-07	0.9
   182	2.3858e-07	0.9
   183	2.38593e-07	0.9
   184	2.38606e-07	0.9
   185	2.38619e-07	0.9
   186	2.38631e-07	0.9
   187	2.38643e-07	0.9
   188	2.38656e-07	0.9
   189	2.38668e-07	0.9
   190	2.3868e-07	0.9
   191	2.38692e-07	0.9
   192	2.38703e-07	0.9
   193	2.38715e-07	0.9
   194	2.38727e-07	0.9
   195	2.38738e-07	0.9
   196	2.38749e-07	0.9
   197	2.3876e-07	0.9
   198	2.38771e-07	0.9
   199	2.38782e-07	0.9
   200	2.38793e-07	0.9
   201	2.38804e-07	0.9
   202	2.38814e-07	0.9
   203	2.38825e-07	0.9
   204	2.38835e-07	0.9
   205	2.38846e-07	0.9
   206	2.38856e-07	0.9
   207	2.38866e-07	0.9
   208	2.38876e-07	0.9
   209	2.38886e-07	0.9
   210	2.38895e-07	0.9
   211	2.38905e-07	0.9
   212	2.38915e-07	0.9
   213	2.38924e-07	0.9
   214	2.38934e-07	0.9
   215	2.38943e-07	0.9
   216	2.38952e-07	0.9
   217	2.38961e-07	0.9
   218	2.38971e-07	0.9
   219	2.3898e-07	0.9
   220	2.38988e-07	0.9
   221	2.38997e-07	0.9
   222	2.39006e-07	0.9
   223	2.39015e-07	0.9
   224	2.39023e-07	0.9
   225	2.39032e-07	0.9
   226	2.3904e-07	0.9
   227	2.39049e-07	0.9
   228	2.39057e-07	0.9
   229	2.39065e-07	0.9
   230	2.39073e-07	0.9
   231	2.39081e-07	0.9
   232	2.39089e-07	0.9
   233	2.39097e-07	0.9
   234	2.39105e-07	0.9
   235	2.39113e-07	0.9
   236	2.39121e-07	0.9
   237	2.39128e-07	0.9
   238	2.39136e-07	0.9
   239	2.39144e-07	0.9
   240	2.39151e-07	0.9
   241	2.39159e-07	0.9
   242	2.39166e-07	0.9
   243	2.39173e-07	0.9
   244	2.3918e-07	0.9
   245	2.39188e-07	0.9
   246	2.39195e-07	0.9
   247	2.39202e-07	0.9
   248	2.39209e-07	0.9
   249	2.39216e-07	0.9
   250	2.39223e-07	0.9
   251	2.3923e-07	0.9
   252	2.39236e-07	0.9
   253	2.39243e-07	0.9
   254	2.3925e-07	0.9
   255	2.39256e-07	0.9
   256	2.39263e-07	0.9
   257	2.39269e-07	0.9
   258	2.39276e-07	0.9
   259	2.39282e-07	0.9
   260	2.39289e-07	0.9
   261	2.39295e-07	0.9
   262	2.39301e-07	0.9
   263	2.39308e-07	0.9
   264	2.39314e-07	0.9
   265	2.3932e-07	0.9
   266	2.39326e-07	0.9
   267	2.39332e-07	0.9
   268	2.39338e-07	0.9
   269	2.39344e-07	0.9
   270	2.3935e-07	0.9
   271	2.39356e-07	0.9
   272	2.39362e-07	0.9
   273	2.39368e-07	0.9
   274	2.39373e-07	0.9
   275	2.39379e-07	0.9
   276	2.39385e-07	0.9
   277	2.39391e-07	0.9
   278	2.39396e-07	0.9
   279	2.39402e-07	0.9
   280	2.39407e-07	0.9
   281	2.39413e-07	0.9
   282	2.39418e-07	0.9
   283	2.39424e-07	0.9
   284	2.39429e-07	0.9
   285	2.39434e-07	0.9
   286	2.3944e-07	0.9
   287	2.39445e-07	0.9
   288	2.3945e-07	0.9
   289	2.39455e-07	0.9
   290	2.39461e-07	0.9
   291	2.39466e-07	0.9
   292	2.39471e-07	0.9
   293	2.39476e-07	0.9
   294	2.39481e-07	0.9
   295	2.39486e-07	0.9
   296	2.39491e-07	0.9
   297	2.39496e-07	0.9
   298	2.39501e-07	0.9
   299	2.39506e-07	0.9
   300	2.39511e-07	0.9
   301	2.39516e-07	0.9
   302	2.3952e-07	0.9
   303	2.39525e-07	0.9
   304	2.3953e-07	0.9
   305	2.39535e-07	0.9
   306	2.39539e-07	0.9
   307	2.39544e-07	0.9
   308	2.39549e-07	0.9
   309	2.39553e-07	0.9
   310	2.39558e-07	0.9
   311	2.39562e-07	0.9
   312	2.39567e-07	0.9
   313	2.39571e-07	0.9
   314	2.39576e-07	0.9
   315	2.3958e-07	0.9
   316	2.39585e-07	0.9
   317	2.39589e-07	0.9
   318	2.39594e-07	0.9
   319	2.39598e-07	0.9
   320	2.39602e-07	0.9
   321	2.39607e-07	0.9
   322	2.39611e-07	0.9
   323	2.39615e-07	0.9
   324	2.39619e-07	0.9
   325	2.39624e-07	0.9
   326	2.39628e-07	0.9
   327	2.39632e-07	0.9
   328	2.39636e-07	0.9
   329	2.3964e-07	0.9
   330	2.39644e-07	0.9
   331	2.39649e-07	0.9
   332	2.39653e-07	0.9
   333	2.39657e-07	0.9
   334	2.39661e-07	0.9
   335	2.39665e-07	0.9
   336	2.39669e-07	0.9
   337	2.39673e-07	0.9
   338	2.39677e-07	0.9
   339	2.39681e-07	0.9
   340	2.39685e-07	0.9
   341	2.39688e-07	0.9
   342	2.39692e-07	0.9
   343	2.39696e-07	0.9
   344	2.397e-07	0.9
   345	2.39704e-07	0.9
   346	2.39708e-07	0.9
   347	2.39711e-07	0.9
   348	2.39715e-07	0.9
   349	2.39719e-07	0.9
   350	2.39723e-07	0.9
   351	2.39726e-07	0.9
   352	2.3973e-07	0.9
   353	2.39734e-07	0.9
   354	2.39737e-07	0.9
   355	2.39741e-07	0.9
   356	2.39745e-07	0.9
   357	2.39748e-07	0.9
   358	2.39752e-07	0.9
   359	2.39755e-07	0.9
   360	2.39759e-07	0.9
   361	2.39763e-07	0.9
   362	2.39766e-07	0.9
   363	2.3977e-07	0.9
   364	2.39773e-07	0.9
   365	2.39777e-07	0.9
   366	2.3978e-07	0.9
   367	2.39784e-07	0.9
   368	2.39787e-07	0.9
   369	2.3979e-07	0.9
   370	2.39794e-07	0.9
   371	2.39797e-07	0.9
   372	2.39801e-07	0.9
   373	2.39804e-07	0.9
   374	2.39807e-07	0.9
   375	2.39811e-07	0.9
   376	2.39814e-07	0.9
   377	2.39817e-07	0.9
   378	2.39821e-07	0.9
   379	2.39824e-07	0.9
   380	2.39827e-07	0.9
   381	2.39831e-07	0.9
   382	2.39834e-07	0.9
   383	2.39837e-07	0.9
   384	2.3984e-07	0.9
   385	2.39844e-07	0.9
   386	2.39847e-07	0.9
   387	2.3985e-07	0.9
   388	2.39853e-07	0.9
   389	2.39856e-07	0.9
   390	2.3986e-07	0.9
   391	2.39863e-07	0.9
   392	2.39866e-07	0.9
   393	2.39869e-07	0.9
   394	2.39872e-07	0.9
   395	2.39875e-07	0.9
   396	2.39878e-07	0.9
   397	2.39881e-07	0.9
   398	2.39884e-07	0.9
   399	2.39887e-07	0.9
   400	2.39891e-07	0.9
   401	2.39894e-07	0.9
   402	2.39897e-07	0.9
   403	2.399e-07	0.9
   404	2.39903e-07	0.9
   405	2.39906e-07	0.9
   406	2.39909e-07	0.9
   407	2.39912e-07	0.9
   408	2.39914e-07	0.9
   409	2.39917e-07	0.9
   410	2.3992e-07	0.9
   411	2.39923e-07	0.9
   412	2.39926e-07	0.9
   413	2.39929e-07	0.9
   414	2.39932e-07	0.9
   415	2.39935e-07	0.9
   416	2.39938e-07	0.9
   417	2.39941e-07	0.9
   418	2.39944e-07	0.9
   419	2.39946e-07	0.9
   420	2.39949e-07	0.9
   421	2.39952e-07	0.9
   422	2.39955e-07	0.9
   423	2.39958e-07	0.9
   424	2.39961e-07	0.9
   425	2.39963e-07	0.9
   426	2.39966e-07	0.9
   427	2.39969e-07	0.9
   428	2.39972e-07	0.9
   429	2.39975e-07	0.9
   430	2.39977e-07	0.9
   431	2.3998e-07	0.9
   432	2.39983e-07	0.9
   433	2.39986e-07	0.9
   434	2.39988e-07	0.9
   435	2.39991e-07	0.9
   436	2.39994e-07	0.9
   437	2.39996e-07	0.9
   438	2.39999e-07	0.9
   439	2.40002e-07	0.9
   440	2.40004e-07	0.9
   441	2.40007e-07	0.9
   442	2.4001e-07	0.9
   443	2.40012e-07	0.9
   444	2.40015e-07	0.9
   445	2.40018e-07	0.9
   446	2.4002e-07	0.9
   447	2.40023e-07	0.9
   448	2.40026e-07	0.9
   449	2.40028e-07	0.9
   450	2.40031e-07	0.9
   451	2.40033e-07	0.9
   452	2.40036e-07	0.9
   453	2.40039e-07	0.9
   454	2.40041e-07	0.9
   455	2.40044e-07	0.9
   456	2.40046e-07	0.9
   457	2.40049e-07	0.9
   458	2.40051e-07	0.9
   459	2.40054e-07	0.9
   460	2.40057e-07	0.9
   461	2.40059e-07	0.9
   462	2.40062e-07	0.9
   463	2.40064e-07	0.9
   464	2.40067e-07	0.9
   465	2.40069e-07	0.9
   466	2.40072e-07	0.9
   467	2.40074e-07	0.9
   468	2.40077e-07	0.9
   469	2.40079e-07	0.9
   470	2.40082e-07	0.9
   471	2.40084e-07	0.9
   472	2.40086e-07	0.9
   473	2.40089e-07	0.9
   474	2.40091e-07	0.9
   475	2.40094e-07	0.9
   476	2.40096e-07	0.9
   477	2.40099e-07	0.9
   478	2.40101e-07	0.9
   479	2.40103e-07	0.9
   480	2.40106e-07	0.9
   481	2.40108e-07	0.9
   482	2.40111e-07	0.9
   483	2.40113e-07	0.9
   484	2.40115e-07	0.9
   485	2.40118e-07	0.9
   486	2.4012e-07	0.9
   487	2.40123e-07	0.9
   488	2.40125e-07	0.9
   489	2.40127e-07	0.9
   490	2.4013e-07	0.9
   491	2.40132e-07	0.9
   492	2.40134e-07	0.9
   493	2.40137e-07	0.9
   494	2.40139e-07	0.9
   495	2.40141e-07	0.9
   496	2.40144e-07	0.9

Measurement: id1
  step	is(m1)	at
     1	3.12535e-07	0.5
     2	2.77768e-07	0.5
     3	2.56002e-07	0.5
     4	2.43023e-07	0.5
     5	2.35135e-07	0.5
     6	2.30233e-07	0.5
     7	2.2714e-07	0.5
     8	2.25175e-07	0.5
     9	2.23936e-07	0.5
    10	2.23173e-07	0.5
    11	2.22728e-07	0.5
    12	2.225e-07	0.5
    13	2.22422e-07	0.5
    14	2.22446e-07	0.5
    15	2.22543e-07	0.5
    16	2.22691e-07	0.5
    17	2.22874e-07	0.5
    18	2.23081e-07	0.5
    19	2.23305e-07	0.5
    20	2.2354e-07	0.5
    21	2.2378e-07	0.5
    22	2.24025e-07	0.5
    23	2.2427e-07	0.5
    24	2.24514e-07	0.5
    25	2.24757e-07	0.5
    26	2.24997e-07	0.5
    27	2.25233e-07	0.5
    28	2.25465e-07	0.5
    29	2.25693e-07	0.5
    30	2.25916e-07	0.5
    31	2.26134e-07	0.5
    32	2.26348e-07	0.5
    33	2.26557e-07	0.5
    34	2.26761e-07	0.5
    35	2.2696e-07	0.5
    36	2.27154e-07	0.5
    37	2.27344e-07	0.5
    38	2.27529e-07	0.5
    39	2.2771e-07	0.5
    40	2.27887e-07	0.5
    41	2.28059e-07	0.5
    42	2.28228e-07	0.5
    43	2.28392e-07	0.5
    44	2.28553e-07	0.5
    45	2.2871e-07	0.5
    46	2.28863e-07	0.5
    47	2.29013e-07	0.5
    48	2.29159e-07	0.5
    49	2.29302e-07	0.5
    50	2.29442e-07	0.5
    51	2.29579e-07	0.5
    52	2.29712e-07	0.5
    53	2.29843e-07	0.5
    54	2.29971e-07	0.5
    55	2.30096e-07	0.5
    56	2.30219e-07	0.5
    57	2.30339e-07	0.5
    58	2.30456e-07	0.5
    59	2.30572e-07	0.5
    60	2.30684e-07	0.5
    61	2.30795e-07	0.5
    62	2.30903e-07	0.5
    63	2.31009e-07	0.5
    64	2.31113e-07	0.5
    65	2.31215e-07	0.5
    66	2.31315e-07	0.5
    67	2.31413e-07	0.5
    68	2.3151e-07	0.5
    69	2.31604e-07	0.5
    70	2.31697e-07	0.5
    71	2.31788e-07	0.5
    72	2.31877e-07	0.5
    73	2.31965e-07	0.5
    74	2.32051e-07	0.5
    75	2.32136e-07	0.5
    76	2.32219e-07	0.5
    77	2.323e-07	0.5
    78	2.3238e-07	0.5
    79	2.32459e-07	0.5
    80	2.32537e-07	0.5
    81	2.32613e-07	0.5
    82	2.32688e-07	0.5
    83	2.32761e-07	0.5
    84	2.32834e-07	0.5
    85	2.32905e-07	0.5
    86	2.32975e-07	0.5
    87	2.33044e-07	0.5
    88	2.33112e-07	0.5
    89	2.33179e-07	0.5
    90	2.33244e-07	0.5
    91	2.33309e-07	0.5
    92	2.33372e-07	0.5
    93	2.33435e-07	0.5
    94	2.33497e-07	0.5
    95	2.33558e-07	0.5
    96	2.33617e-07	0.5
    97	2.33676e-07	0.5
    98	2.33734e-07	0.5
    99	2.33791e-07	0.5
   100	2.33848e-07	0.5
   101	2.33903e-07	0.5
   102	2.33958e-07	0.5
   103	2.34012e-07	0.5
   104	2.34065e-07	0.5
   105	2.34117e-07	0.5
   106	2.34169e-07	0.5
   107	2.3422e-07	0.5
   108	2.3427e-07	0.5
   109	2.3432e-07	0.5
   110	2.34369e-07	0.5
   111	2.34417e-07	0.5
   112	2.34464e-07	0.5
   113	2.34511e-07	0.5
   114	2.34557e-07	0.5
   115	2.34603e-07	0.5
   116	2.34648e-07	0.5
   117	2.34692e-07	0.5
   118	2.34736e-07	0.5
   119	2.34779e-07	0.5
   120	2.34822e-07	0.5
   121	2.34864e-07	0.5
   122	2.34906e-07	0.5
   123	2.34947e-07	0.5
   124	2.34987e-07	0.5
   125	2.35028e-07	0.5
   126	2.35067e-07	0.5
   127	2.35106e-07	0.5
   128	2.35145e-07	0.5
   129	2.35183e-07	0.5
   130	2.3522e-07	0.5
   131	2.35258e-07	0.5
   132	2.35294e-07	0.5
   133	2.35331e-07	0.5
   134	2.35366e-07	0.5
   135	2.35402e-07	0.5
   136	2.35437e-07	0.5
   137	2.35472e-07	0.5
   138	2.35506e-07	0.5
   139	2.3554e-07	0.5
   140	2.35573e-07	0.5
   141	2.35606e-07	0.5
   142	2.35639e-07	0.5
   143	2.35671e-07	0.5
   144	2.35703e-07	0.5
   145	2.35734e-07	0.5
   146	2.35766e-07	0.5
   147	2.35796e-07	0.5
   148	2.35827e-07	0.5
   149	2.35857e-07	0.5
   150	2.35887e-07	0.5
   151	2.35916e-07	0.5
   152	2.35946e-07	0.5
   153	2.35975e-07	0.5
   154	2.36003e-07	0.5
   155	2.36031e-07	0.5
   156	2.36059e-07	0.5
   157	2.36087e-07	0.5
   158	2.36114e-07	0.5
   159	2.36142e-07	0.5
   160	2.36168e-07	0.5
   161	2.36195e-07	0.5
   162	2.36221e-07	0.5
   163	2.36247e-07	0.5
   164	2.36273e-07	0.5
   165	2.36298e-07	0.5
   166	2.36324e-07	0.5
   167	2.36349e-07	0.5
   168	2.36373e-07	0.5
   169	2.36398e-07	0.5
   170	2.36422e-07	0.5
   171	2.36446e-07	0.5
   172	2.3647e-07	0.5
   173	2.36493e-07	0.5
   174	2.36516e-07	0.5
   175	2.3654e-07	0.5
   176	2.36562e-07	0.5
   177	2.36585e-07	0.5
   178	2.36607e-07	0.5
   179	2.3663e-07	0.5
   180	2.36652e-07	0.5
   181	2.36673e-07	0.5
   182	2.36695e-07	0.5
   183	2.36716e-07	0.5
   184	2.36737e-07	0.5
   185	2.36758e-07	0.5
   186	2.36779e-07	0.5
   187	2.368e-07	0.5
   188	2.3682e-07	0.5
   189	2.3684e-07	0.5
   190	2.3686e-07	0.5
   191	2.3688e-07	0.5
   192	2.369e-07	0.5
   193	2.3692e-07	0.5
   194	2.36939e-07	0.5
   195	2.36958e-07	0.5
   196	2.36977e-07	0.5
   197	2.36996e-07	0.5
   198	2.37015e-07	0.5
   199	2.37033e-07	0.5
   200	2.37051e-07	0.5
   201	2.3707e-07	0.5
   202	2.37088e-07	0.5
   203	2.37106e-07	0.5
   204	2.37123e-07	0.5
   205	2.37141e-07	0.5
   206	2.37158e-07	0.5
   207	2.37176e-07	0.5
   208	2.37193e-07	0.5
   209	2.3721e-07	0.5
   210	2.37227e-07	0.5
   211	2.37243e-07	0.5
   212	2.3726e-07	0.5
   213	2.37276e-07	0.5
   214	2.37293e-07	0.5
   215	2.37309e-07	0.5
   216	2.37325e-07	0.5
   217	2.37341e-07	0.5
   218	2.37357e-07	0.5
   219	2.37372e-07	0.5
   220	2.37388e-07	0.5
   221	2.37403e-07	0.5
   222	2.37419e-07	0.5
   223	2.37434e-07	0.5
   224	2.37449e-07	0.5
   225	2.37464e-07	0.5
   226	2.37479e-07	0.5
   227	2.37493e-07	0.5
   228	2.37508e-07	0.5
   229	2.37522e-07	0.5
   230	2.37537e-07	0.5
   231	2.37551e-07	0.5
   232	2.37565e-07	0.5
   233	2.37579e-07	0.5
   234	2.37593e-07	0.5
   235	2.37607e-07	0.5
   236	2.37621e-07	0.5
   237	2.37635e-07	0.5
   238	2.37648e-07	0.5
   239	2.37662e-07	0.5
   240	2.37675e-07	0.5
   241	2.37688e-07	0.5
   242	2.37701e-07	0.5
   243	2.37715e-07	0.5
   244	2.37728e-07	0.5
   245	2.3774e-07	0.5
   246	2.37753e-07	0.5
   247	2.37766e-07	0.5
   248	2.37779e-07	0.5
   249	2.37791e-07	0.5
   250	2.37804e-07	0.5
   251	2.37816e-07	0.5
   252	2.37828e-07	0.5
   253	2.3784e-07	0.5
   254	2.37852e-07	0.5
   255	2.37864e-07	0.5
   256	2.37876e-07	0.5
   257	2.37888e-07	0.5
   258	2.379e-07	0.5
   259	2.37912e-07	0.5
   260	2.37923e-07	0.5
   261	2.37935e-07	0.5
   262	2.37946e-07	0.5
   263	2.37958e-07	0.5
   264	2.37969e-07	0.5
   265	2.3798e-07	0.5
   266	2.37991e-07	0.5
   267	2.38003e-07	0.5
   268	2.38014e-07	0.5
   269	2.38025e-07	0.5
   270	2.38035e-07	0.5
   271	2.38046e-07	0.5
   272	2.38057e-07	0.5
   273	2.38068e-07	0.5
   274	2.38078e-07	0.5
   275	2.38089e-07	0.5
   276	2.38099e-07	0.5
   277	2.3811e-07	0.5
   278	2.3812e-07	0.5
   279	2.3813e-07	0.5
   280	2.38141e-07	0.5
   281	2.38151e-07	0.5
   282	2.38161e-07	0.5
   283	2.38171e-07	0.5
   284	2.38181e-07	0.5
   285	2.38191e-07	0.5
   286	2.382e-07	0.5
   287	2.3821e-07	0.5
   288	2.3822e-07	0.5
   289	2.3823e-07	0.5
   290	2.38239e-07	0.5
   291	2.38249e-07	0.5
   292	2.38258e-07	0.5
   293	2.38268e-07	0.5
   294	2.38277e-07	0.5
   295	2.38287e-07	0.5
   296	2.38296e-07	0.5
   297	2.38305e-07	0.5
   298	2.38314e-07	0.5
   299	2.38323e-07	0.5
   300	2.38332e-07	0.5
   301	2.38341e-07	0.5
   302	2.3835e-07	0.5
   303	2.38359e-07	0.5
   304	2.38368e-07	0.5
   305	2.38377e-07	0.5
   306	2.38386e-07	0.5
   307	2.38394e-07	0.5
   308	2.38403e-07	0.5
   309	2.38412e-07	0.5
   310	2.3842e-07	0.5
   311	2.38429e-07	0.5
   312	2.38437e-07	0.5
   313	2.38446e-07	0.5
   314	2.38454e-07	0.5
   315	2.38462e-07	0.5
   316	2.38471e-07	0.5
   317	2.38479e-07	0.5
   318	2.38487e-07	0.5
   319	2.38495e-07	0.5
   320	2.38503e-07	0.5
   321	2.38511e-07	0.5
   322	2.38519e-07	0.5
   323	2.38527e-07	0.5
   324	2.38535e-07	0.5
   325	2.38543e-07	0.5
   326	2.38551e-07	0.5
   327	2.38559e-07	0.5
   328	2.38567e-07	0.5
   329	2.38574e-07	0.5
   330	2.38582e-07	0.5
   331	2.3859e-07	0.5
   332	2.38597e-07	0.5
   333	2.38605e-07	0.5
   334	2.38613e-07	0.5
   335	2.3862e-07	0.5
   336	2.38628e-07	0.5
   337	2.38635e-07	0.5
   338	2.38642e-07	0.5
   339	2.3865e-07	0.5
   340	2.38657e-07	0.5
   341	2.38664e-07	0.5
   342	2.38672e-07	0.5
   343	2.38679e-07	0.5
   344	2.38686e-07	0.5
   345	2.38693e-07	0.5
   346	2.387e-07	0.5
   347	2.38707e-07	0.5
   348	2.38714e-07	0.5
   349	2.38721e-07	0.5
   350	2.38728e-07	0.5
   351	2.38735e-07	0.5
   352	2.38742e-07	0.5
   353	2.38749e-07	0.5
   354	2.38756e-07	0.5
   355	2.38763e-07	0.5
   356	2.38769e-07	0.5
   357	2.38776e-07	0.5
   358	2.38783e-07	0.5
   359	2.38789e-07	0.5
   360	2.38796e-07	0.5
   361	2.38803e-07	0.5
   362	2.38809e-07	0.5
   363	2.38816e-07	0.5
   364	2.38822e-07	0.5
   365	2.38829e-07	0.5
   366	2.38835e-07	0.5
   367	2.38842e-07	0.5
   368	2.38848e-07	0.5
   369	2.38855e-07	0.5
   370	2.38861e-07	0.5
   371	2.38867e-07	0.5
   372	2.38873e-07	0.5
   373	2.3888e-07	0.5
   374	2.38886e-07	0.5
   375	2.38892e-07	0.5
   376	2.38898e-07	0.5
   377	2.38904e-07	0.5
   378	2.38911e-07	0.5
   379	2.38917e-07	0.5
   380	2.38923e-07	0.5
   381	2.38929e-07	0.5
   382	2.38935e-07	0.5
   383	2.38941e-07	0.5
   384	2.38947e-07	0.5
   385	2.38953e-07	0.5
   386	2.38959e-07	0.5
   387	2.38965e-07	0.5
   388	2.3897e-07	0.5
   389	2.38976e-07	0.5
   390	2.38982e-07	0.5
   391	2.38988e-07	0.5
   392	2.38994e-07	0.5
   393	2.38999e-07	0.5
   394	2.39005e-07	0.5
   395	2.39011e-07	0.5
   396	2.39016e-07	0.5
   397	2.39022e-07	0.5
   398	2.39028e-07	0.5
   399	2.39033e-07	0.5
   400	2.39039e-07	0.5
   401	2.39044e-07	0.5
   402	2.3905e-07	0.5
   403	2.39055e-07	0.5
   404	2.39061e-07	0.5
   405	2.39066e-07	0.5
   406	2.39072e-07	0.5
   407	2.39077e-07	0.5
   408	2.39083e-07	0.5
   409	2.39088e-07	0.5
   410	2.39093e-07	0.5
   411	2.39099e-07	0.5
   412	2.39104e-07	0.5
   413	2.39109e-07	0.5
   414	2.39115e-07	0.5
   415	2.3912e-07	0.5
   416	2.39125e-07	0.5
   417	2.3913e-07	0.5
   418	2.39135e-07	0.5
   419	2.39141e-07	0.5
   420	2.39146e-07	0.5
   421	2.39151e-07	0.5
   422	2.39156e-07	0.5
   423	2.39161e-07	0.5
   424	2.39166e-07	0.5
   425	2.39171e-07	0.5
   426	2.39176e-07	0.5
   427	2.39181e-07	0.5
   428	2.39186e-07	0.5
   429	2.39191e-07	0.5
   430	2.39196e-07	0.5
   431	2.39201e-07	0.5
   432	2.39206e-07	0.5
   433	2.39211e-07	0.5
   434	2.39216e-07	0.5
   435	2.39221e-07	0.5
   436	2.39225e-07	0.5
   437	2.3923e-07	0.5
   438	2.39235e-07	0.5
   439	2.3924e-07	0.5
   440	2.39245e-07	0.5
   441	2.39249e-07	0.5
   442	2.39254e-07	0.5
   443	2.39259e-07	0.5
   444	2.39264e-07	0.5
   445	2.39268e-07	0.5
   446	2.39273e-07	0.5
   447	2.39278e-07	0.5
   448	2.39282e-07	0.5
   449	2.39287e-07	0.5
   450	2.39291e-07	0.5
   451	2.39296e-07	0.5
   452	2.39301e-07	0.5
   453	2.39305e-07	0.5
   454	2.3931e-07	0.5
   455	2.39314e-07	0.5
   456	2.39319e-07	0.5
   457	2.39323e-07	0.5
   458	2.39328e-07	0.5
   459	2.39332e-07	0.5
   460	2.39337e-07	0.5
   461	2.39341e-07	0.5
   462	2.39345e-07	0.5
   463	2.3935e-07	0.5
   464	2.39354e-07	0.5
   465	2.39359e-07	0.5
   466	2.39363e-07	0.5
   467	2.39367e-07	0.5
   468	2.39372e-07	0.5
   469	2.39376e-07	0.5
   470	2.3938e-07	0.5
   471	2.39385e-07	0.5
   472	2.39389e-07	0.5
   473	2.39393e-07	0.5
   474	2.39397e-07	0.5
   475	2.39401e-07	0.5
   476	2.39406e-07	0.5
   477	2.3941e-07	0.5
   478	2.39414e-07	0.5
   479	2.39418e-07	0.5
   480	2.39422e-07	0.5
   481	2.39427e-07	0.5
   482	2.39431e-07	0.5
   483	2.39435e-07	0.5
   484	2.39439e-07	0.5
   485	2.39443e-07	0.5
   486	2.39447e-07	0.5
   487	2.39451e-07	0.5
   488	2.39455e-07	0.5
   489	2.39459e-07	0.5
   490	2.39463e-07	0.5
   491	2.39467e-07	0.5
   492	2.39471e-07	0.5
   493	2.39475e-07	0.5
   494	2.39479e-07	0.5
   495	2.39483e-07	0.5
   496	2.39487e-07	0.5

Measurement: id2
  step	is(m1)	at
     1	3.68242e-07	1.3
     2	3.22519e-07	1.3
     3	2.93116e-07	1.3
     4	2.74967e-07	1.3
     5	2.63422e-07	1.3
     6	2.55807e-07	1.3
     7	2.50619e-07	1.3
     8	2.46984e-07	1.3
     9	2.44376e-07	1.3
    10	2.42467e-07	1.3
    11	2.41046e-07	1.3
    12	2.39974e-07	1.3
    13	2.39156e-07	1.3
    14	2.38528e-07	1.3
    15	2.38043e-07	1.3
    16	2.37667e-07	1.3
    17	2.37376e-07	1.3
    18	2.37151e-07	1.3
    19	2.3698e-07	1.3
    20	2.36851e-07	1.3
    21	2.36757e-07	1.3
    22	2.3669e-07	1.3
    23	2.36646e-07	1.3
    24	2.3662e-07	1.3
    25	2.36609e-07	1.3
    26	2.36611e-07	1.3
    27	2.36624e-07	1.3
    28	2.36645e-07	1.3
    29	2.36673e-07	1.3
    30	2.36706e-07	1.3
    31	2.36745e-07	1.3
    32	2.36787e-07	1.3
    33	2.36833e-07	1.3
    34	2.36881e-07	1.3
    35	2.36931e-07	1.3
    36	2.36983e-07	1.3
    37	2.37036e-07	1.3
    38	2.3709e-07	1.3
    39	2.37145e-07	1.3
    40	2.372e-07	1.3
    41	2.37256e-07	1.3
    42	2.37311e-07	1.3
    43	2.37366e-07	1.3
    44	2.37421e-07	1.3
    45	2.37476e-07	1.3
    46	2.37531e-07	1.3
    47	2.37585e-07	1.3
    48	2.37638e-07	1.3
    49	2.37691e-07	1.3
    50	2.37743e-07	1.3
    51	2.37795e-07	1.3
    52	2.37846e-07	1.3
    53	2.37896e-07	1.3
    54	2.37946e-07	1.3
    55	2.37994e-07	1.3
    56	2.38042e-07	1.3
    57	2.3809e-07	1.3
    58	2.38136e-07	1.3
    59	2.38182e-07	1.3
    60	2.38227e-07	1.3
    61	2.38271e-07	1.3
    62	2.38314e-07	1.3
    63	2.38357e-07	1.3
    64	2.38399e-07	1.3
    65	2.3844e-07	1.3
    66	2.3848e-07	1.3
    67	2.3852e-07	1.3
    68	2.38559e-07	1.3
    69	2.38597e-07	1.3
    70	2.38634e-07	1.3
    71	2.38671e-07	1.3
    72	2.38707e-07	1.3
    73	2.38743e-07	1.3
    74	2.38777e-07	1.3
    75	2.38811e-07	1.3
    76	2.38845e-07	1.3
    77	2.38878e-07	1.3
    78	2.3891e-07	1.3
    79	2.38941e-07	1.3
    80	2.38972e-07	1.3
    81	2.39003e-07	1.3
    82	2.39033e-07	1.3
    83	2.39062e-07	1.3
    84	2.3909e-07	1.3
    85	2.39119e-07	1.3
    86	2.39146e-07	1.3
    87	2.39173e-07	1.3
    88	2.392e-07	1.3
    89	2.39226e-07	1.3
    90	2.39251e-07	1.3
    91	2.39276e-07	1.3
    92	2.39301e-07	1.3
    93	2.39325e-07	1.3
    94	2.39349e-07	1.3
    95	2.39372e-07	1.3
    96	2.39394e-07	1.3
    97	2.39417e-07	1.3
    98	2.39439e-07	1.3
    99	2.3946e-07	1.3
   100	2.39481e-07	1.3
   101	2.39502e-07	1.3
   102	2.39522e-07	1.3
   103	2.39542e-07	1.3
   104	2.39561e-07	1.3
   105	2.3958e-07	1.3
   106	2.39599e-07	1.3
   107	2.39617e-07	1.3
   108	2.39635e-07	1.3
   109	2.39653e-07	1.3
   110	2.3967e-07	1.3
   111	2.39687e-07	1.3
   112	2.39704e-07	1.3
   113	2.3972e-07	1.3
   114	2.39736e-07	1.3
   115	2.39752e-07	1.3
   116	2.39768e-07	1.3
   117	2.39783e-07	1.3
   118	2.39798e-07	1.3
   119	2.39812e-07	1.3
   120	2.39827e-07	1.3
   121	2.39841e-07	1.3
   122	2.39854e-07	1.3
   123	2.39868e-07	1.3
   124	2.39881e-07	1.3
   125	2.39894e-07	1.3
   126	2.39907e-07	1.3
   127	2.39919e-07	1.3
   128	2.39932e-07	1.3
   129	2.39944e-07	1.3
   130	2.39956e-07	1.3
   131	2.39967e-07	1.3
   132	2.39979e-07	1.3
   133	2.3999e-07	1.3
   134	2.40001e-07	1.3
   135	2.40011e-07	1.3
   136	2.40022e-07	1.3
   137	2.40032e-07	1.3
   138	2.40043e-07	1.3
   139	2.40052e-07	1.3
   140	2.40062e-07	1.3
   141	2.40072e-07	1.3
   142	2.40081e-07	1.3
   143	2.40091e-07	1.3
   144	2.401e-07	1.3
   145	2.40108e-07	1.3
   146	2.40117e-07	1.3
   147	2.40126e-07	1.3
   148	2.40134e-07	1.3
   149	2.40142e-07	1.3
   150	2.40151e-07	1.3
   151	2.40158e-07	1.3
   152	2.40166e-07	1.3
   153	2.40174e-07	1.3
   154	2.40181e-07	1.3
   155	2.40189e-07	1.3
   156	2.40196e-07	1.3
   157	2.40203e-07	1.3
   158	2.4021e-07	1.3
   159	2.40217e-07	1.3
   160	2.40224e-07	1.3
   161	2.4023e-07	1.3
   162	2.40237e-07	1.3
   163	2.40243e-07	1.3
   164	2.40249e-07	1.3
   165	2.40255e-07	1.3
   166	2.40261e-07	1.3
   167	2.40267e-07	1.3
   168	2.40273e-07	1.3
   169	2.40279e-07	1.3
   170	2.40284e-07	1.3
   171	2.4029e-07	1.3
   172	2.40295e-07	1.3
   173	2.403e-07	1.3
   174	2.40306e-07	1.3
   175	2.40311e-07	1.3
   176	2.40316e-07	1.3
   177	2.4032e-07	1.3
   178	2.40325e-07	1.3
   179	2.4033e-07	1.3
   180	2.40335e-07	1.3
   181	2.40339e-07	1.3
   182	2.40344e-07	1.3
   183	2.40348e-07	1.3
   184	2.40352e-07	1.3
   185	2.40356e-07	1.3
   186	2.40361e-07	1.3
   187	2.40365e-07	1.3
   188	2.40369e-07	1.3
   189	2.40372e-07	1.3
   190	2.40376e-07	1.3
   191	2.4038e-07	1.3
   192	2.40384e-07	1.3
   193	2.40387e-07	1.3
   194	2.40391e-07	1.3
   195	2.40394e-07	1.3
   196	2.40398e-07	1.3
   197	2.40401e-07	1.3
   198	2.40404e-07	1.3
   199	2.40408e-07	1.3
   200	2.40411e-07	1.3
   201	2.40414e-07	1.3
   202	2.40417e-07	1.3
   203	2.4042e-07	1.3
   204	2.40423e-07	1.3
   205	2.40426e-07	1.3
   206	2.40429e-07	1.3
   207	2.40432e-07	1.3
   208	2.40434e-07	1.3
   209	2.40437e-07	1.3
   210	2.4044e-07	1.3
   211	2.40442e-07	1.3
   212	2.40445e-07	1.3
   213	2.40447e-07	1.3
   214	2.4045e-07	1.3
   215	2.40452e-07	1.3
   216	2.40455e-07	1.3
   217	2.40457e-07	1.3
   218	2.40459e-07	1.3
   219	2.40461e-07	1.3
   220	2.40464e-07	1.3
   221	2.40466e-07	1.3
   222	2.40468e-07	1.3
   223	2.4047e-07	1.3
   224	2.40472e-07	1.3
   225	2.40474e-07	1.3
   226	2.40476e-07	1.3
   227	2.40478e-07	1.3
   228	2.4048e-07	1.3
   229	2.40482e-07	1.3
   230	2.40484e-07	1.3
   231	2.40485e-07	1.3
   232	2.40487e-07	1.3
   233	2.40489e-07	1.3
   234	2.40491e-07	1.3
   235	2.40492e-07	1.3
   236	2.40494e-07	1.3
   237	2.40496e-07	1.3
   238	2.40497e-07	1.3
   239	2.40499e-07	1.3
   240	2.405e-07	1.3
   241	2.40502e-07	1.3
   242	2.40503e-07	1.3
   243	2.40505e-07	1.3
   244	2.40506e-07	1.3
   245	2.40508e-07	1.3
   246	2.40509e-07	1.3
   247	2.4051e-07	1.3
   248	2.40512e-07	1.3
   249	2.40513e-07	1.3
   250	2.40514e-07	1.3
   251	2.40516e-07	1.3
   252	2.40517e-07	1.3
   253	2.40518e-07	1.3
   254	2.40519e-07	1.3
   255	2.40521e-07	1.3
   256	2.40522e-07	1.3
   257	2.40523e-07	1.3
   258	2.40524e-07	1.3
   259	2.40525e-07	1.3
   260	2.40526e-07	1.3
   261	2.40527e-07	1.3
   262	2.40528e-07	1.3
   263	2.40529e-07	1.3
   264	2.4053e-07	1.3
   265	2.40531e-07	1.3
   266	2.40532e-07	1.3
   267	2.40533e-07	1.3
   268	2.40534e-07	1.3
   269	2.40535e-07	1.3
   270	2.40536e-07	1.3
   271	2.40537e-07	1.3
   272	2.40538e-07	1.3
   273	2.40539e-07	1.3
   274	2.4054e-07	1.3
   275	2.40541e-07	1.3
   276	2.40542e-07	1.3
   277	2.40543e-07	1.3
   278	2.40543e-07	1.3
   279	2.40544e-07	1.3
   280	2.40545e-07	1.3
   281	2.40546e-07	1.3
   282	2.40547e-07	1.3
   283	2.40547e-07	1.3
   284	2.40548e-07	1.3
   285	2.40549e-07	1.3
   286	2.4055e-07	1.3
   287	2.4055e-07	1.3
   288	2.40551e-07	1.3
   289	2.40552e-07	1.3
   290	2.40553e-07	1.3
   291	2.40553e-07	1.3
   292	2.40554e-07	1.3
   293	2.40555e-07	1.3
   294	2.40555e-07	1.3
   295	2.40556e-07	1.3
   296	2.40557e-07	1.3
   297	2.40557e-07	1.3
   298	2.40558e-07	1.3
   299	2.40559e-07	1.3
   300	2.40559e-07	1.3
   301	2.4056e-07	1.3
   302	2.40561e-07	1.3
   303	2.40561e-07	1.3
   304	2.40562e-07	1.3
   305	2.40562e-07	1.3
   306	2.40563e-07	1.3
   307	2.40564e-07	1.3
   308	2.40564e-07	1.3
   309	2.40565e-07	1.3
   310	2.40565e-07	1.3
   311	2.40566e-07	1.3
   312	2.40567e-07	1.3
   313	2.40567e-07	1.3
   314	2.40568e-07	1.3
   315	2.40568e-07	1.3
   316	2.40569e-07	1.3
   317	2.40569e-07	1.3
   318	2.4057e-07	1.3
   319	2.4057e-07	1.3
   320	2.40571e-07	1.3
   321	2.40571e-07	1.3
   322	2.40572e-07	1.3
   323	2.40572e-07	1.3
   324	2.40573e-07	1.3
   325	2.40574e-07	1.3
   326	2.40574e-07	1.3
   327	2.40575e-07	1.3
   328	2.40575e-07	1.3
   329	2.40576e-07	1.3
   330	2.40576e-07	1.3
   331	2.40577e-07	1.3
   332	2.40577e-07	1.3
   333	2.40578e-07	1.3
   334	2.40578e-07	1.3
   335	2.40579e-07	1.3
   336	2.40579e-07	1.3
   337	2.4058e-07	1.3
   338	2.4058e-07	1.3
   339	2.40581e-07	1.3
   340	2.40581e-07	1.3
   341	2.40581e-07	1.3
   342	2.40582e-07	1.3
   343	2.40582e-07	1.3
   344	2.40583e-07	1.3
   345	2.40583e-07	1.3
   346	2.40584e-07	1.3
   347	2.40584e-07	1.3
   348	2.40585e-07	1.3
   349	2.40585e-07	1.3
   350	2.40586e-07	1.3
   351	2.40586e-07	1.3
   352	2.40587e-07	1.3
   353	2.40587e-07	1.3
   354	2.40588e-07	1.3
   355	2.40588e-07	1.3
   356	2.40589e-07	1.3
   357	2.40589e-07	1.3
   358	2.4059e-07	1.3
   359	2.4059e-07	1.3
   360	2.40591e-07	1.3
   361	2.40591e-07	1.3
   362	2.40591e-07	1.3
   363	2.40592e-07	1.3
   364	2.40592e-07	1.3
   365	2.40593e-07	1.3
   366	2.40593e-07	1.3
   367	2.40594e-07	1.3
   368	2.40594e-07	1.3
   369	2.40595e-07	1.3
   370	2.40595e-07	1.3
   371	2.40596e-07	1.3
   372	2.40596e-07	1.3
   373	2.40597e-07	1.3
   374	2.40597e-07	1.3
   375	2.40598e-07	1.3
   376	2.40598e-07	1.3
   377	2.40599e-07	1.3
   378	2.40599e-07	1.3
   379	2.406e-07	1.3
   380	2.406e-07	1.3
   381	2.406e-07	1.3
   382	2.40601e-07	1.3
   383	2.40601e-07	1.3
   384	2.40602e-07	1.3
   385	2.40602e-07	1.3
   386	2.40603e-07	1.3
   387	2.40603e-07	1.3
   388	2.40604e-07	1.3
   389	2.40604e-07	1.3
   390	2.40605e-07	1.3
   391	2.40605e-07	1.3
   392	2.40606e-07	1.3
   393	2.40606e-07	1.3
   394	2.40607e-07	1.3
   395	2.40607e-07	1.3
   396	2.40608e-07	1.3
   397	2.40608e-07	1.3
   398	2.40609e-07	1.3
   399	2.40609e-07	1.3
   400	2.4061e-07	1.3
   401	2.4061e-07	1.3
   402	2.40611e-07	1.3
   403	2.40611e-07	1.3
   404	2.40612e-07	1.3
   405	2.40612e-07	1.3
   406	2.40613e-07	1.3
   407	2.40613e-07	1.3
   408	2.40614e-07	1.3
   409	2.40614e-07	1.3
   410	2.40615e-07	1.3
   411	2.40615e-07	1.3
   412	2.40616e-07	1.3
   413	2.40616e-07	1.3
   414	2.40617e-07	1.3
   415	2.40618e-07	1.3
   416	2.40618e-07	1.3
   417	2.40619e-07	1.3
   418	2.40619e-07	1.3
   419	2.4062e-07	1.3
   420	2.4062e-07	1.3
   421	2.40621e-07	1.3
   422	2.40621e-07	1.3
   423	2.40622e-07	1.3
   424	2.40622e-07	1.3
   425	2.40623e-07	1.3
   426	2.40623e-07	1.3
   427	2.40624e-07	1.3
   428	2.40625e-07	1.3
   429	2.40625e-07	1.3
   430	2.40626e-07	1.3
   431	2.40626e-07	1.3
   432	2.40627e-07	1.3
   433	2.40627e-07	1.3
   434	2.40628e-07	1.3
   435	2.40628e-07	1.3
   436	2.40629e-07	1.3
   437	2.4063e-07	1.3
   438	2.4063e-07	1.3
   439	2.40631e-07	1.3
   440	2.40631e-07	1.3
   441	2.40632e-07	1.3
   442	2.40632e-07	1.3
   443	2.40633e-07	1.3
   444	2.40634e-07	1.3
   445	2.40634e-07	1.3
   446	2.40635e-07	1.3
   447	2.40635e-07	1.3
   448	2.40636e-07	1.3
   449	2.40637e-07	1.3
   450	2.40637e-07	1.3
   451	2.40638e-07	1.3
   452	2.40638e-07	1.3
   453	2.40639e-07	1.3
   454	2.4064e-07	1.3
   455	2.4064e-07	1.3
   456	2.40641e-07	1.3
   457	2.40641e-07	1.3
   458	2.40642e-07	1.3
   459	2.40643e-07	1.3
   460	2.40643e-07	1.3
   461	2.40644e-07	1.3
   462	2.40644e-07	1.3
   463	2.40645e-07	1.3
   464	2.40646e-07	1.3
   465	2.40646e-07	1.3
   466	2.40647e-07	1.3
   467	2.40648e-07	1.3
   468	2.40648e-07	1.3
   469	2.40649e-07	1.3
   470	2.40649e-07	1.3
   471	2.4065e-07	1.3
   472	2.40651e-07	1.3
   473	2.40651e-07	1.3
   474	2.40652e-07	1.3
   475	2.40653e-07	1.3
   476	2.40653e-07	1.3
   477	2.40654e-07	1.3
   478	2.40655e-07	1.3
   479	2.40655e-07	1.3
   480	2.40656e-07	1.3
   481	2.40657e-07	1.3
   482	2.40657e-07	1.3
   483	2.40658e-07	1.3
   484	2.40658e-07	1.3
   485	2.40659e-07	1.3
   486	2.4066e-07	1.3
   487	2.4066e-07	1.3
   488	2.40661e-07	1.3
   489	2.40662e-07	1.3
   490	2.40662e-07	1.3
   491	2.40663e-07	1.3
   492	2.40664e-07	1.3
   493	2.40664e-07	1.3
   494	2.40665e-07	1.3
   495	2.40666e-07	1.3
   496	2.40667e-07	1.3

Measurement: rout
  step	(1.3-0.5)/(id2-id1)
     1	1.4361e+07
     2	1.78766e+07
     3	2.15549e+07
     4	2.50436e+07
     5	2.8282e+07
     6	3.12818e+07
     7	3.40721e+07
     8	3.66827e+07
     9	3.91396e+07
    10	4.14644e+07
    11	4.36745e+07
    12	4.57841e+07
    13	4.78046e+07
    14	4.97459e+07
    15	5.16156e+07
    16	5.34204e+07
    17	5.51664e+07
    18	5.68582e+07
    19	5.85003e+07
    20	6.00966e+07
    21	6.16503e+07
    22	6.31647e+07
    23	6.46422e+07
    24	6.60855e+07
    25	6.74968e+07
    26	6.88781e+07
    27	7.02313e+07
    28	7.15582e+07
    29	7.28603e+07
    30	7.41391e+07
    31	7.53959e+07
    32	7.6632e+07
    33	7.78485e+07
    34	7.90467e+07
    35	8.02272e+07
    36	8.13914e+07
    37	8.25397e+07
    38	8.36736e+07
    39	8.47932e+07
    40	8.58997e+07
    41	8.69935e+07
    42	8.80756e+07
    43	8.91462e+07
    44	9.02059e+07
    45	9.12555e+07
    46	9.22953e+07
    47	9.3326e+07
    48	9.4348e+07
    49	9.53617e+07
    50	9.63675e+07
    51	9.73659e+07
    52	9.83569e+07
    53	9.93412e+07
    54	1.00319e+08
    55	1.01291e+08
    56	1.02257e+08
    57	1.03218e+08
    58	1.04173e+08
    59	1.05123e+08
    60	1.06069e+08
    61	1.0701e+08
    62	1.07947e+08
    63	1.0888e+08
    64	1.09809e+08
    65	1.10735e+08
    66	1.11657e+08
    67	1.12576e+08
    68	1.13492e+08
    69	1.14405e+08
    70	1.15316e+08
    71	1.16224e+08
    72	1.1713e+08
    73	1.18033e+08
    74	1.18934e+08
    75	1.19834e+08
    76	1.20732e+08
    77	1.21628e+08
    78	1.22522e+08
    79	1.23415e+08
    80	1.24307e+08
    81	1.25198e+08
    82	1.26087e+08
    83	1.26976e+08
    84	1.27863e+08
    85	1.2875e+08
    86	1.29636e+08
    87	1.30522e+08
    88	1.31407e+08
    89	1.32291e+08
    90	1.33175e+08
    91	1.3406e+08
    92	1.34943e+08
    93	1.35827e+08
    94	1.3671e+08
    95	1.37593e+08
    96	1.38478e+08
    97	1.39361e+08
    98	1.40245e+08
    99	1.41129e+08
   100	1.42014e+08
   101	1.42899e+08
   102	1.43784e+08
   103	1.4467e+08
   104	1.45557e+08
   105	1.46444e+08
   106	1.47332e+08
   107	1.4822e+08
   108	1.4911e+08
   109	1.5e+08
   110	1.50891e+08
   111	1.51783e+08
   112	1.52676e+08
   113	1.53569e+08
   114	1.54464e+08
   115	1.5536e+08
   116	1.56257e+08
   117	1.57156e+08
   118	1.58055e+08
   119	1.58955e+08
   120	1.59856e+08
   121	1.60759e+08
   122	1.61664e+08
   123	1.62569e+08
   124	1.63477e+08
   125	1.64385e+08
   126	1.65295e+08
   127	1.66207e+08
   128	1.6712e+08
   129	1.68034e+08
   130	1.6895e+08
   131	1.69867e+08
   132	1.70787e+08
   133	1.71708e+08
   134	1.72629e+08
   135	1.73554e+08
   136	1.7448e+08
   137	1.75407e+08
   138	1.76337e+08
   139	1.77268e+08
   140	1.78201e+08
   141	1.79136e+08
   142	1.80073e+08
   143	1.81011e+08
   144	1.81952e+08
   145	1.82895e+08
   146	1.83838e+08
   147	1.84785e+08
   148	1.85733e+08
   149	1.86682e+08
   150	1.87636e+08
   151	1.88589e+08
   152	1.89545e+08
   153	1.90504e+08
   154	1.91465e+08
   155	1.92427e+08
   156	1.93392e+08
   157	1.94358e+08
   158	1.95327e+08
   159	1.96299e+08
   160	1.97271e+08
   161	1.98247e+08
   162	1.99224e+08
   163	2.00204e+08
   164	2.01186e+08
   165	2.02171e+08
   166	2.03157e+08
   167	2.04146e+08
   168	2.05137e+08
   169	2.06132e+08
   170	2.07127e+08
   171	2.08125e+08
   172	2.09125e+08
   173	2.10127e+08
   174	2.11134e+08
   175	2.1214e+08
   176	2.1315e+08
   177	2.14163e+08
   178	2.15178e+08
   179	2.16195e+08
   180	2.17213e+08
   181	2.18237e+08
   182	2.19262e+08
   183	2.20288e+08
   184	2.21317e+08
   185	2.2235e+08
   186	2.23382e+08
   187	2.24421e+08
   188	2.2546e+08
   189	2.26502e+08
   190	2.27546e+08
   191	2.28593e+08
   192	2.29642e+08
   193	2.30695e+08
   194	2.31749e+08
   195	2.32807e+08
   196	2.33866e+08
   197	2.34929e+08
   198	2.35994e+08
   199	2.37061e+08
   200	2.38131e+08
   201	2.39204e+08
   202	2.40279e+08
   203	2.41358e+08
   204	2.42438e+08
   205	2.43521e+08
   206	2.44608e+08
   207	2.45698e+08
   208	2.46788e+08
   209	2.47881e+08
   210	2.48978e+08
   211	2.50079e+08
   212	2.5118e+08
   213	2.52284e+08
   214	2.53392e+08
   215	2.54504e+08
   216	2.55616e+08
   217	2.5673e+08
   218	2.5785e+08
   219	2.5897e+08
   220	2.60094e+08
   221	2.61221e+08
   222	2.62352e+08
   223	2.63483e+08
   224	2.64618e+08
   225	2.65756e+08
   226	2.66897e+08
   227	2.68038e+08
   228	2.69185e+08
   229	2.70333e+08
   230	2.71487e+08
   231	2.7264e+08
   232	2.73796e+08
   233	2.74957e+08
   234	2.76121e+08
   235	2.77287e+08
   236	2.78454e+08
   237	2.79625e+08
   238	2.808e+08
   239	2.81977e+08
   240	2.83158e+08
   241	2.84338e+08
   242	2.85525e+08
   243	2.86712e+08
   244	2.87905e+08
   245	2.89098e+08
   246	2.90296e+08
   247	2.91495e+08
   248	2.92698e+08
   249	2.93903e+08
   250	2.95109e+08
   251	2.96324e+08
   252	2.97536e+08
   253	2.98753e+08
   254	2.99973e+08
   255	3.01196e+08
   256	3.02422e+08
   257	3.03649e+08
   258	3.04881e+08
   259	3.06117e+08
   260	3.07353e+08
   261	3.08594e+08
   262	3.09834e+08
   263	3.1108e+08
   264	3.1233e+08
   265	3.13581e+08
   266	3.14837e+08
   267	3.16094e+08
   268	3.17355e+08
   269	3.18616e+08
   270	3.19883e+08
   271	3.21152e+08
   272	3.22424e+08
   273	3.23702e+08
   274	3.24976e+08
   275	3.26261e+08
   276	3.27542e+08
   277	3.28828e+08
   278	3.3012e+08
   279	3.31412e+08
   280	3.32707e+08
   281	3.34006e+08
   282	3.35307e+08
   283	3.3661e+08
   284	3.37917e+08
   285	3.39227e+08
   286	3.40542e+08
   287	3.41859e+08
   288	3.43176e+08
   289	3.44497e+08
   290	3.45822e+08
   291	3.47149e+08
   292	3.48483e+08
   293	3.49813e+08
   294	3.51148e+08
   295	3.52491e+08
   296	3.53832e+08
   297	3.55178e+08
   298	3.56525e+08
   299	3.57881e+08
   300	3.5923e+08
   301	3.6059e+08
   302	3.61949e+08
   303	3.63311e+08
   304	3.6468e+08
   305	3.66044e+08
   306	3.67418e+08
   307	3.68792e+08
   308	3.70172e+08
   309	3.71552e+08
   310	3.72938e+08
   311	3.74317e+08
   312	3.75711e+08
   313	3.77105e+08
   314	3.785e+08
   315	3.79894e+08
   316	3.81299e+08
   317	3.82704e+08
   318	3.84109e+08
   319	3.85519e+08
   320	3.86934e+08
   321	3.88348e+08
   322	3.89768e+08
   323	3.91187e+08
   324	3.92611e+08
   325	3.94035e+08
   326	3.95469e+08
   327	3.96902e+08
   328	3.98334e+08
   329	3.99777e+08
   330	4.01219e+08
   331	4.02665e+08
   332	4.0411e+08
   333	4.05566e+08
   334	4.07015e+08
   335	4.08473e+08
   336	4.09931e+08
   337	4.11399e+08
   338	4.12859e+08
   339	4.14324e+08
   340	4.15799e+08
   341	4.17272e+08
   342	4.18749e+08
   343	4.20225e+08
   344	4.21711e+08
   345	4.23194e+08
   346	4.24688e+08
   347	4.26174e+08
   348	4.2767e+08
   349	4.29163e+08
   350	4.30666e+08
   351	4.32167e+08
   352	4.33672e+08
   353	4.35181e+08
   354	4.36693e+08
   355	4.38209e+08
   356	4.39722e+08
   357	4.41239e+08
   358	4.42766e+08
   359	4.44289e+08
   360	4.45823e+08
   361	4.47347e+08
   362	4.48888e+08
   363	4.50425e+08
   364	4.51965e+08
   365	4.53502e+08
   366	4.55049e+08
   367	4.56599e+08
   368	4.58145e+08
   369	4.59709e+08
   370	4.6126e+08
   371	4.62815e+08
   372	4.64381e+08
   373	4.65949e+08
   374	4.67512e+08
   375	4.69086e+08
   376	4.70655e+08
   377	4.72234e+08
   378	4.73808e+08
   379	4.75392e+08
   380	4.76979e+08
   381	4.78569e+08
   382	4.80161e+08
   383	4.81747e+08
   384	4.83343e+08
   385	4.84942e+08
   386	4.86543e+08
   387	4.88146e+08
   388	4.89752e+08
   389	4.91359e+08
   390	4.92977e+08
   391	4.94588e+08
   392	4.96201e+08
   393	4.97825e+08
   394	4.9945e+08
   395	5.01068e+08
   396	5.02706e+08
   397	5.04327e+08
   398	5.05968e+08
   399	5.07601e+08
   400	5.09236e+08
   401	5.10881e+08
   402	5.12527e+08
   403	5.14175e+08
   404	5.15824e+08
   405	5.17474e+08
   406	5.19135e+08
   407	5.20787e+08
   408	5.2245e+08
   409	5.24103e+08
   410	5.25777e+08
   411	5.27442e+08
   412	5.29108e+08
   413	5.30784e+08
   414	5.32471e+08
   415	5.34149e+08
   416	5.35826e+08
   417	5.37515e+08
   418	5.39193e+08
   419	5.40882e+08
   420	5.42571e+08
   421	5.44271e+08
   422	5.4596e+08
   423	5.47659e+08
   424	5.4937e+08
   425	5.51069e+08
   426	5.52779e+08
   427	5.54499e+08
   428	5.56198e+08
   429	5.57918e+08
   430	5.59626e+08
   431	5.61356e+08
   432	5.63074e+08
   433	5.64802e+08
   434	5.6653e+08
   435	5.68257e+08
   436	5.69995e+08
   437	5.71732e+08
   438	5.73467e+08
   439	5.75202e+08
   440	5.76935e+08
   441	5.7869e+08
   442	5.80433e+08
   443	5.82185e+08
   444	5.83937e+08
   445	5.85698e+08
   446	5.87446e+08
   447	5.89205e+08
   448	5.90974e+08
   449	5.92741e+08
   450	5.94506e+08
   451	5.96269e+08
   452	5.98043e+08
   453	5.99815e+08
   454	6.01596e+08
   455	6.03376e+08
   456	6.0514e+08
   457	6.06928e+08
   458	6.08726e+08
   459	6.10509e+08
   460	6.12301e+08
   461	6.14091e+08
   462	6.15879e+08
   463	6.17676e+08
   464	6.19484e+08
   465	6.21289e+08
   466	6.23091e+08
   467	6.24903e+08
   468	6.26712e+08
   469	6.28503e+08
   470	6.30318e+08
   471	6.32144e+08
   472	6.33967e+08
   473	6.35786e+08
   474	6.37615e+08
   475	6.39425e+08
   476	6.41246e+08
   477	6.43092e+08
   478	6.44919e+08
   479	6.46757e+08
   480	6.4859e+08
   481	6.50418e+08
   482	6.52257e+08
   483	6.54106e+08
   484	6.55951e+08
   485	6.57805e+08
   486	6.5964e+08
   487	6.615e+08
   488	6.6334e+08
   489	6.65205e+08
   490	6.67066e+08
   491	6.68936e+08
   492	6.70785e+08
   493	6.72645e+08
   494	6.74515e+08
   495	6.76379e+08
   496	6.78269e+08

Measurement: lambda
  step	1/(id0*rout)
     1	0.204746
     2	0.186518
     3	0.169082
     4	0.154255
     5	0.141903
     6	0.131588
     7	0.122899
     8	0.1155
     9	0.109135
    10	0.103603
    11	0.0987533
    12	0.0944654
    13	0.0906461
    14	0.0872212
    15	0.0841311
    16	0.0813277
    17	0.0787711
    18	0.076429
    19	0.0742743
    20	0.0722841
    21	0.0704393
    22	0.0687235
    23	0.0671227
    24	0.0656252
    25	0.0642202
    26	0.0628989
    27	0.0616534
    28	0.0604767
    29	0.0593627
    30	0.0583061
    31	0.0573021
    32	0.0563463
    33	0.0554351
    34	0.0545649
    35	0.0537329
    36	0.052936
    37	0.052172
    38	0.0514383
    39	0.0507332
    40	0.0500546
    41	0.0494009
    42	0.0487704
    43	0.0481618
    44	0.0475738
    45	0.0470051
    46	0.0464548
    47	0.0459216
    48	0.0454046
    49	0.044903
    50	0.044416
    51	0.0439427
    52	0.0434827
    53	0.0430351
    54	0.0425993
    55	0.0421748
    56	0.0417611
    57	0.0413576
    58	0.0409639
    59	0.0405796
    60	0.0402043
    61	0.0398374
    62	0.0394788
    63	0.039128
    64	0.0387848
    65	0.0384488
    66	0.0381199
    67	0.0377974
    68	0.0374816
    69	0.0371719
    70	0.0368682
    71	0.0365701
    72	0.0362776
    73	0.0359905
    74	0.0357086
    75	0.0354315
    76	0.0351594
    77	0.0348918
    78	0.0346288
    79	0.0343701
    80	0.0341156
    81	0.0338652
    82	0.0336189
    83	0.0333763
    84	0.0331376
    85	0.0329023
    86	0.0326706
    87	0.0324424
    88	0.0322173
    89	0.0319957
    90	0.0317772
    91	0.0315615
    92	0.031349
    93	0.0311393
    94	0.0309325
    95	0.0307284
    96	0.0305269
    97	0.0303281
    98	0.0301319
    99	0.029938
   100	0.0297467
   101	0.0295577
   102	0.029371
   103	0.0291866
   104	0.0290043
   105	0.0288243
   106	0.0286463
   107	0.0284704
   108	0.0282964
   109	0.0281245
   110	0.0279546
   111	0.0277864
   112	0.0276202
   113	0.0274558
   114	0.0272932
   115	0.0271324
   116	0.0269731
   117	0.0268155
   118	0.0266596
   119	0.0265053
   120	0.0263527
   121	0.0262016
   122	0.0260519
   123	0.0259039
   124	0.0257571
   125	0.0256119
   126	0.0254681
   127	0.0253257
   128	0.0251846
   129	0.0250449
   130	0.0249065
   131	0.0247696
   132	0.0246337
   133	0.0244991
   134	0.0243658
   135	0.0242337
   136	0.0241027
   137	0.023973
   138	0.0238444
   139	0.023717
   140	0.0235906
   141	0.0234655
   142	0.0233413
   143	0.0232182
   144	0.0230962
   145	0.0229752
   146	0.0228554
   147	0.0227364
   148	0.0226185
   149	0.0225016
   150	0.0223855
   151	0.0222705
   152	0.0221565
   153	0.0220433
   154	0.021931
   155	0.0218196
   156	0.0217092
   157	0.0215997
   158	0.021491
   159	0.021383
   160	0.0212762
   161	0.02117
   162	0.0210647
   163	0.0209601
   164	0.0208564
   165	0.0207535
   166	0.0206514
   167	0.02055
   168	0.0204494
   169	0.0203494
   170	0.0202504
   171	0.020152
   172	0.0200544
   173	0.0199575
   174	0.0198612
   175	0.0197658
   176	0.019671
   177	0.0195768
   178	0.0194834
   179	0.0193906
   180	0.0192986
   181	0.0192071
   182	0.0191163
   183	0.0190262
   184	0.0189367
   185	0.0188477
   186	0.0187596
   187	0.0186719
   188	0.0185849
   189	0.0184984
   190	0.0184126
   191	0.0183273
   192	0.0182427
   193	0.0181586
   194	0.0180752
   195	0.0179922
   196	0.0179098
   197	0.017828
   198	0.0177467
   199	0.0176659
   200	0.0175858
   201	0.0175061
   202	0.017427
   203	0.0173484
   204	0.0172704
   205	0.0171928
   206	0.0171157
   207	0.017039
   208	0.0169631
   209	0.0168876
   210	0.0168124
   211	0.0167378
   212	0.0166637
   213	0.0165901
   214	0.016517
   215	0.0164441
   216	0.016372
   217	0.0163003
   218	0.0162289
   219	0.0161581
   220	0.0160877
   221	0.0160176
   222	0.015948
   223	0.015879
   224	0.0158103
   225	0.0157421
   226	0.0156742
   227	0.0156069
   228	0.0155399
   229	0.0154733
   230	0.0154071
   231	0.0153414
   232	0.0152761
   233	0.0152111
   234	0.0151465
   235	0.0150823
   236	0.0150186
   237	0.0149552
   238	0.0148922
   239	0.0148295
   240	0.0147672
   241	0.0147055
   242	0.0146439
   243	0.0145828
   244	0.0145219
   245	0.0144616
   246	0.0144015
   247	0.0143418
   248	0.0142824
   249	0.0142235
   250	0.014165
   251	0.0141065
   252	0.0140486
   253	0.013991
   254	0.0139337
   255	0.0138767
   256	0.0138201
   257	0.0137639
   258	0.0137079
   259	0.0136522
   260	0.0135969
   261	0.0135419
   262	0.0134873
   263	0.0134329
   264	0.0133788
   265	0.0133251
   266	0.0132716
   267	0.0132185
   268	0.0131657
   269	0.0131132
   270	0.0130609
   271	0.013009
   272	0.0129574
   273	0.0129059
   274	0.012855
   275	0.0128041
   276	0.0127537
   277	0.0127035
   278	0.0126535
   279	0.0126039
   280	0.0125545
   281	0.0125054
   282	0.0124566
   283	0.0124081
   284	0.0123598
   285	0.0123119
   286	0.012264
   287	0.0122165
   288	0.0121694
   289	0.0121224
   290	0.0120757
   291	0.0120293
   292	0.011983
   293	0.0119372
   294	0.0118916
   295	0.011846
   296	0.0118009
   297	0.0117559
   298	0.0117112
   299	0.0116666
   300	0.0116226
   301	0.0115785
   302	0.0115348
   303	0.0114913
   304	0.011448
   305	0.0114051
   306	0.0113622
   307	0.0113197
   308	0.0112772
   309	0.0112351
   310	0.0111932
   311	0.0111517
   312	0.0111101
   313	0.0110689
   314	0.0110279
   315	0.0109872
   316	0.0109465
   317	0.0109061
   318	0.010866
   319	0.0108261
   320	0.0107863
   321	0.0107468
   322	0.0107075
   323	0.0106684
   324	0.0106295
   325	0.010591
   326	0.0105524
   327	0.0105141
   328	0.0104761
   329	0.0104381
   330	0.0104004
   331	0.0103629
   332	0.0103257
   333	0.0102884
   334	0.0102516
   335	0.0102149
   336	0.0101784
   337	0.0101419
   338	0.0101058
   339	0.0100699
   340	0.0100341
   341	0.00999848
   342	0.00996304
   343	0.0099279
   344	0.00989276
   345	0.00985792
   346	0.00982308
   347	0.00978869
   348	0.0097543
   349	0.00972021
   350	0.00968612
   351	0.00965233
   352	0.00961869
   353	0.0095852
   354	0.00955186
   355	0.00951866
   356	0.00948577
   357	0.00945303
   358	0.00942029
   359	0.00938784
   360	0.0093554
   361	0.0093234
   362	0.00929126
   363	0.00925941
   364	0.00922772
   365	0.00919632
   366	0.00916492
   367	0.00913368
   368	0.00910273
   369	0.00907163
   370	0.00904098
   371	0.00901048
   372	0.00897998
   373	0.00894963
   374	0.00891958
   375	0.00888953
   376	0.00885978
   377	0.00883003
   378	0.00880058
   379	0.00877112
   380	0.00874182
   381	0.00871267
   382	0.00868366
   383	0.00865496
   384	0.00862625
   385	0.00859769
   386	0.00856929
   387	0.00854103
   388	0.00851292
   389	0.00848496
   390	0.00845701
   391	0.00842934
   392	0.00840183
   393	0.00837432
   394	0.00834696
   395	0.0083199
   396	0.00829269
   397	0.00826592
   398	0.00823901
   399	0.0082124
   400	0.00818593
   401	0.00815947
   402	0.00813315
   403	0.00810698
   404	0.00808097
   405	0.0080551
   406	0.00802923
   407	0.00800366
   408	0.00797809
   409	0.00795282
   410	0.0079274
   411	0.00790228
   412	0.00787731
   413	0.00785233
   414	0.00782736
   415	0.00780269
   416	0.00777816
   417	0.00775364
   418	0.00772941
   419	0.00770519
   420	0.00768111
   421	0.00765703
   422	0.00763325
   423	0.00760947
   424	0.0075857
   425	0.00756222
   426	0.00753874
   427	0.00751526
   428	0.00749222
   429	0.00746904
   430	0.00744616
   431	0.00742312
   432	0.00740039
   433	0.00737765
   434	0.00735507
   435	0.00733263
   436	0.0073102
   437	0.00728791
   438	0.00726577
   439	0.00724378
   440	0.00722194
   441	0.00719995
   442	0.00717826
   443	0.00715657
   444	0.00713503
   445	0.00711349
   446	0.00709224
   447	0.007071
   448	0.00704976
   449	0.00702866
   450	0.00700771
   451	0.00698692
   452	0.00696612
   453	0.00694547
   454	0.00692483
   455	0.00690433
   456	0.00688413
   457	0.00686378
   458	0.00684343
   459	0.00682338
   460	0.00680332
   461	0.00678342
   462	0.00676367
   463	0.00674391
   464	0.00672416
   465	0.00670456
   466	0.0066851
   467	0.00666565
   468	0.00664634
   469	0.00662733
   470	0.00660817
   471	0.00658901
   472	0.00657001
   473	0.00655115
   474	0.00653229
   475	0.00651372
   476	0.00649516
   477	0.00647645
   478	0.00645804
   479	0.00643963
   480	0.00642136
   481	0.00640325
   482	0.00638513
   483	0.00636702
   484	0.00634905
   485	0.00633108
   486	0.00631342
   487	0.0062956
   488	0.00627808
   489	0.00626041
   490	0.00624289
   491	0.00622537
   492	0.00620815
   493	0.00619093
   494	0.00617371
   495	0.00615663
   496	0.00613941

Total elapsed time: 11.119 seconds.

