Questionable use of curly braces in ".meas dc uth find {1.8-v(vg)} when is(m1)=1e-7*{wtab/ltab}"
    Error: undefined symbol in: "1.8-[v](vg)"
LTspice 24.0.12 for Windows
Circuit: * C:\Users\tomto\Documents\skola\NAO\cv1\P2-mos.asc
Start Time: Wed Feb 26 12:31:21 2025
solver = Normal
Maximum thread count: 16



Warning: Pd = 0 is less than W.
Warning: Ps = 0 is less than W.
.step ltab=1.8e-07



.step ltab=3e-07



.step ltab=5e-07



.step ltab=8e-07



.step ltab=1e-06



.step ltab=2e-06



.step ltab=3e-06



.step ltab=5e-06
tnom = 27
temp = 27
method = modified trap
.step ltab=1e-05


Measurement: uth
  step	(1.8-v(vg))	at
     1	0.450782	0.450782
     2	0.449915	0.449915
     3	0.446555	0.446555
     4	0.439249	0.439249
     5	0.435497	0.435497
     6	0.426509	0.426509
     7	0.423538	0.423538
     8	0.421494	0.421494
     9	0.420673	0.420673

Total elapsed time: 0.398 seconds.

