Questionable use of curly braces in ".meas dc uth find {1.5-v(vg)} when is(m1)=1e-7*wtab/ltab"
    Error: undefined symbol in: "1.5-[v](vg)"
LTspice 24.0.12 for Windows
Circuit: * C:\Users\tomto\Documents\skola\NAO\cv1\P21-mos.asc
Start Time: Wed Feb 26 12:44:37 2025
solver = Normal
Maximum thread count: 16



Warning: Pd = 0 is less than W.
Warning: Ps = 0 is less than W.
.step n=1



.step n=2



.step n=3



.step n=4



.step n=5



.step n=6



.step n=7



.step n=8
tnom = 27
temp = 27
method = modified trap
.step n=9


Measurement: uth
  step	(1.5-v(vg))	at
     1	0.0855612	0.385561
     2	0.142645	0.442645
     3	0.145964	0.445964
     4	0.135092	0.435092
     5	0.135497	0.435497
     6	0.126699	0.426699
     7	0.121728	0.421728
     8	0.121026	0.421026
     9	0.120698	0.420697

Total elapsed time: 0.336 seconds.

